/*--------------------------------*- C++ -*----------------------------------*\
  =========                 |
  \\      /  F ield         | OpenFOAM: The Open Source CFD Toolbox
   \\    /   O peration     | Website:  https://openfoam.org
    \\  /    A nd           | Version:  7  
     \\/     M anipulation  |
\*---------------------------------------------------------------------------*/
FoamFile
{
    version     2.0;
    format      ascii;
    class       volScalarField;
    location    "0";
    object      N2;
}
// * * * * * * * * * * * * * * * * * * * * * * * * * * * * * * * * * * * * * //

dimensions      [0 0 0 0 0 0 0];

internalField   uniform 0.7671;

boundaryField
{
    "w_.*"
    {
        type            zeroGradient;
    }
    outlet
    {
        type            zeroGradient;
    }
    in_coolinggas
    {
        type            fixedValue;
        value           uniform 0.7671;
    }
    in_blast
    {
        type            fixedValue;
        value           uniform 0.7671;
    }
    in_pci
    {
        type            fixedValue;
        value           uniform 1.0;
    }
    sampleRegion
    {
        type zeroGradient;
    }

}


// ************************************************************************* //
