/*--------------------------------*- C++ -*----------------------------------*\
  =========                 |
  \\      /  F ield         | OpenFOAM: The Open Source CFD Toolbox
   \\    /   O peration     | Website:  https://openfoam.org
    \\  /    A nd           | Version:  9
     \\/     M anipulation  |
\*---------------------------------------------------------------------------*/
FoamFile
{
    format      ascii;
    class       featureEdgeMesh;
    location    "constant/triSurface";
    object      in_blast.eMesh;
}
// * * * * * * * * * * * * * * * * * * * * * * * * * * * * * * * * * * * * * //


// points:

126
(
(0.0301853 -0.0333743 -0.1)
(0.0278887 -0.035316 -0.1)
(0.0323471 -0.0312837 -0.1)
(0.0254676 -0.0370999 -0.1)
(0.0343644 -0.0290533 -0.1)
(0.0229327 -0.0387181 -0.1)
(0.0362282 -0.0266931 -0.1)
(0.0202955 -0.0401633 -0.1)
(0.0379302 -0.0242137 -0.1)
(0.0175675 -0.0414292 -0.1)
(0.0394627 -0.0216262 -0.1)
(0.0147611 -0.0425101 -0.1)
(0.0408191 -0.0189421 -0.1)
(0.0118888 -0.0434011 -0.1)
(0.0419931 -0.0161733 -0.1)
(0.00896337 -0.0440983 -0.1)
(0.0429796 -0.0133324 -0.1)
(0.00599791 -0.0445985 -0.1)
(0.0437741 -0.0104319 -0.1)
(0.00300567 -0.0448995 -0.1)
(0.0443732 -0.00748482 -0.1)
(0 -0.045 -0.1)
(0.044774 -0.00450431 -0.1)
(-0.00300567 -0.0448995 -0.1)
(0.0449749 -0.00150367 -0.1)
(-0.00599791 -0.0445985 -0.1)
(0.0449749 0.00150367 -0.1)
(-0.00896337 -0.0440983 -0.1)
(0.044774 0.00450431 -0.1)
(-0.0118888 -0.0434011 -0.1)
(0.0443732 0.00748482 -0.1)
(-0.0147611 -0.0425101 -0.1)
(0.0437741 0.0104319 -0.1)
(-0.0175675 -0.0414292 -0.1)
(0.0429796 0.0133324 -0.1)
(-0.0202955 -0.0401633 -0.1)
(0.0419931 0.0161733 -0.1)
(-0.0229327 -0.0387181 -0.1)
(0.0408191 0.0189421 -0.1)
(-0.0254676 -0.0370999 -0.1)
(0.00186316 0.00111797 -0.1)
(0.00365362 0.00166557 -0.1)
(0.00530186 0.00255382 -0.1)
(0.0394627 0.0216262 -0.1)
(-0.0278887 -0.035316 -0.1)
(0 0.000932957 -0.1)
(0.00674444 0.00374744 -0.1)
(0.0379302 0.0242137 -0.1)
(-0.0301853 -0.0333743 -0.1)
(-0.00186316 0.00111797 -0.1)
(0.00792645 0.00519956 -0.1)
(0.0362282 0.0266931 -0.1)
(-0.0323471 -0.0312837 -0.1)
(-0.00365362 0.00166557 -0.1)
(0.00880348 0.00685386 -0.1)
(0.0343644 0.0290533 -0.1)
(-0.0343644 -0.0290533 -0.1)
(-0.00530186 0.00255382 -0.1)
(0.00934295 0.00864687 -0.1)
(0.0323471 0.0312837 -0.1)
(-0.0362282 -0.0266931 -0.1)
(-0.00674444 0.00374744 -0.1)
(0.009525 0.0105104 -0.1)
(0.0301853 0.0333743 -0.1)
(-0.0379302 -0.0242137 -0.1)
(-0.00792645 0.00519956 -0.1)
(0.00934295 0.012374 -0.1)
(0.0278887 0.035316 -0.1)
(-0.0394627 -0.0216262 -0.1)
(-0.00880348 0.00685386 -0.1)
(0.00880348 0.014167 -0.1)
(0.0254676 0.0370999 -0.1)
(-0.0408191 -0.0189421 -0.1)
(-0.00934295 0.00864687 -0.1)
(0.00792645 0.0158213 -0.1)
(0.0229327 0.0387181 -0.1)
(-0.0419931 -0.0161733 -0.1)
(-0.009525 0.0105104 -0.1)
(0.00674444 0.0172734 -0.1)
(0.0202955 0.0401633 -0.1)
(-0.0429796 -0.0133324 -0.1)
(-0.00934295 0.012374 -0.1)
(0.00530186 0.018467 -0.1)
(0.0175675 0.0414292 -0.1)
(-0.0437741 -0.0104319 -0.1)
(-0.00880348 0.014167 -0.1)
(0.00365362 0.0193553 -0.1)
(0.0147611 0.0425101 -0.1)
(-0.0443732 -0.00748482 -0.1)
(-0.00792645 0.0158213 -0.1)
(0.00186316 0.0199029 -0.1)
(0.0118888 0.0434011 -0.1)
(-0.044774 -0.00450431 -0.1)
(-0.00674444 0.0172734 -0.1)
(0 0.0200879 -0.1)
(0.00896337 0.0440983 -0.1)
(-0.0449749 -0.00150367 -0.1)
(-0.00530186 0.018467 -0.1)
(-0.00186316 0.0199029 -0.1)
(0.00599791 0.0445985 -0.1)
(-0.0449749 0.00150367 -0.1)
(-0.044774 0.00450431 -0.1)
(-0.00365362 0.0193553 -0.1)
(-0.0443732 0.00748482 -0.1)
(0.00300567 0.0448995 -0.1)
(-0.0437741 0.0104319 -0.1)
(0 0.045 -0.1)
(-0.0429796 0.0133324 -0.1)
(-0.00300567 0.0448995 -0.1)
(-0.0419931 0.0161733 -0.1)
(-0.00599791 0.0445985 -0.1)
(-0.0408191 0.0189421 -0.1)
(-0.00896337 0.0440983 -0.1)
(-0.0394627 0.0216262 -0.1)
(-0.0118888 0.0434011 -0.1)
(-0.0379302 0.0242137 -0.1)
(-0.0147611 0.0425101 -0.1)
(-0.0202955 0.0401633 -0.1)
(-0.0175675 0.0414292 -0.1)
(-0.0278887 0.035316 -0.1)
(-0.0254676 0.0370999 -0.1)
(-0.0362282 0.0266931 -0.1)
(-0.0229327 0.0387181 -0.1)
(-0.0301853 0.0333743 -0.1)
(-0.0343644 0.0290533 -0.1)
(-0.0323471 0.0312837 -0.1)
)


// edges:

126
(
(0 1)
(2 0)
(1 3)
(4 2)
(3 5)
(6 4)
(5 7)
(8 6)
(7 9)
(10 8)
(9 11)
(12 10)
(11 13)
(14 12)
(13 15)
(16 14)
(15 17)
(18 16)
(17 19)
(20 18)
(19 21)
(22 20)
(21 23)
(24 22)
(23 25)
(26 24)
(25 27)
(28 26)
(27 29)
(30 28)
(29 31)
(32 30)
(31 33)
(34 32)
(33 35)
(36 34)
(35 37)
(38 36)
(37 39)
(40 41)
(41 42)
(43 38)
(39 44)
(45 40)
(42 46)
(47 43)
(44 48)
(49 45)
(46 50)
(51 47)
(48 52)
(53 49)
(50 54)
(55 51)
(52 56)
(57 53)
(54 58)
(59 55)
(56 60)
(61 57)
(58 62)
(63 59)
(60 64)
(65 61)
(62 66)
(67 63)
(64 68)
(69 65)
(66 70)
(71 67)
(68 72)
(73 69)
(70 74)
(75 71)
(72 76)
(77 73)
(74 78)
(79 75)
(76 80)
(81 77)
(78 82)
(83 79)
(80 84)
(85 81)
(82 86)
(87 83)
(84 88)
(89 85)
(86 90)
(91 87)
(88 92)
(93 89)
(90 94)
(95 91)
(92 96)
(97 93)
(94 98)
(99 95)
(96 100)
(100 101)
(102 97)
(98 102)
(101 103)
(104 99)
(103 105)
(106 104)
(105 107)
(108 106)
(107 109)
(110 108)
(109 111)
(112 110)
(111 113)
(114 112)
(113 115)
(116 114)
(117 118)
(119 120)
(115 121)
(118 116)
(122 117)
(120 122)
(123 119)
(121 124)
(125 123)
(124 125)
)

// * * * * * * * * * * * * * * * * * * * * * * * * * * * * * * * * * * * * * //


// ************************************************************************* //
