/*--------------------------------*- C++ -*----------------------------------*\
  =========                 |
  \\      /  F ield         | OpenFOAM: The Open Source CFD Toolbox
   \\    /   O peration     | Website:  https://openfoam.org
    \\  /    A nd           | Version:  9
     \\/     M anipulation  |
\*---------------------------------------------------------------------------*/
FoamFile
{
    format      ascii;
    class       featureEdgeMesh;
    location    "constant/triSurface";
    object      in_coolinggas.eMesh;
}
// * * * * * * * * * * * * * * * * * * * * * * * * * * * * * * * * * * * * * //


// points:

64
(
(-0.00124211 0.00424879 -0.1)
(0 0.00412545 -0.1)
(0.00124211 0.00424879 -0.1)
(-0.00243575 0.00461385 -0.1)
(0.00243575 0.00461385 -0.1)
(-0.00353458 0.00520602 -0.1)
(0.00353458 0.00520602 -0.1)
(-0.00449629 0.00600177 -0.1)
(0 0.00254177 -0.1)
(-0.00155019 0.00269571 -0.1)
(0.00449629 0.00600177 -0.1)
(0.00155019 0.00269571 -0.1)
(-0.0052843 0.00696985 -0.1)
(-0.00303989 0.00315132 -0.1)
(0.0052843 0.00696985 -0.1)
(0.00303989 0.00315132 -0.1)
(-0.00586899 0.00807271 -0.1)
(-0.00441126 0.00389036 -0.1)
(0.00586899 0.00807271 -0.1)
(0.00441126 0.00389036 -0.1)
(-0.00622863 0.00926806 -0.1)
(-0.00561151 0.00488348 -0.1)
(0.00622863 0.00926806 -0.1)
(0.00561151 0.00488348 -0.1)
(-0.00635 0.0105104 -0.1)
(-0.00659497 0.00609168 -0.1)
(0.00635 0.0105104 -0.1)
(0.00659497 0.00609168 -0.1)
(-0.00622863 0.0117528 -0.1)
(-0.00732468 0.00746809 -0.1)
(0.00622863 0.0117528 -0.1)
(0.00732468 0.00746809 -0.1)
(-0.00586899 0.0129481 -0.1)
(-0.00777353 0.00895991 -0.1)
(0.00586899 0.0129481 -0.1)
(0.00777353 0.00895991 -0.1)
(-0.0052843 0.014051 -0.1)
(-0.007925 0.0105104 -0.1)
(0.0052843 0.014051 -0.1)
(0.007925 0.0105104 -0.1)
(-0.00449629 0.0150191 -0.1)
(-0.00777353 0.0120609 -0.1)
(0.00449629 0.0150191 -0.1)
(0.00777353 0.0120609 -0.1)
(-0.00353458 0.0158148 -0.1)
(-0.00732468 0.0135528 -0.1)
(0.00353458 0.0158148 -0.1)
(0.00732468 0.0135528 -0.1)
(-0.00243575 0.016407 -0.1)
(-0.00659497 0.0149292 -0.1)
(0.00243575 0.016407 -0.1)
(0.00659497 0.0149292 -0.1)
(-0.00124211 0.0167721 -0.1)
(-0.00561151 0.0161374 -0.1)
(0.00124211 0.0167721 -0.1)
(0.00561151 0.0161374 -0.1)
(0 0.0168954 -0.1)
(-0.00441126 0.0171305 -0.1)
(0.00441126 0.0171305 -0.1)
(-0.00303989 0.0178695 -0.1)
(0.00303989 0.0178695 -0.1)
(-0.00155019 0.0183251 -0.1)
(0.00155019 0.0183251 -0.1)
(0 0.0184791 -0.1)
)


// edges:

64
(
(0 1)
(1 2)
(3 0)
(2 4)
(5 3)
(4 6)
(7 5)
(8 9)
(6 10)
(11 8)
(12 7)
(9 13)
(10 14)
(15 11)
(16 12)
(13 17)
(14 18)
(19 15)
(20 16)
(17 21)
(18 22)
(23 19)
(24 20)
(21 25)
(22 26)
(27 23)
(28 24)
(25 29)
(26 30)
(31 27)
(32 28)
(29 33)
(30 34)
(35 31)
(36 32)
(33 37)
(34 38)
(39 35)
(40 36)
(37 41)
(38 42)
(43 39)
(44 40)
(41 45)
(42 46)
(47 43)
(48 44)
(45 49)
(46 50)
(51 47)
(52 48)
(49 53)
(50 54)
(55 51)
(56 52)
(53 57)
(54 56)
(58 55)
(57 59)
(60 58)
(59 61)
(62 60)
(61 63)
(63 62)
)

// * * * * * * * * * * * * * * * * * * * * * * * * * * * * * * * * * * * * * //


// ************************************************************************* //
