/*--------------------------------*- C++ -*----------------------------------*\
  =========                 |
  \\      /  F ield         | OpenFOAM: The Open Source CFD Toolbox
   \\    /   O peration     | Website:  https://openfoam.org
    \\  /    A nd           | Version:  9
     \\/     M anipulation  |
\*---------------------------------------------------------------------------*/
FoamFile
{
    format      ascii;
    class       featureEdgeMesh;
    location    "constant/triSurface";
    object      in_pci.eMesh;
}
// * * * * * * * * * * * * * * * * * * * * * * * * * * * * * * * * * * * * * //


// points:

32
(
(0.00181775 -0.00436439 -0.000458716)
(0.000926679 -0.00463321 -0.00048697)
(0.00263896 -0.00392785 -0.000412833)
(0 -0.00472398 -0.00049651)
(0.00335876 -0.00334036 -0.000351086)
(-0.000926679 -0.00463321 -0.00048697)
(0.00394948 -0.0026245 -0.000275846)
(-0.00181775 -0.00436439 -0.000458716)
(0.00438843 -0.00180779 -0.000190006)
(-0.00263896 -0.00392785 -0.000412833)
(0.00465873 -0.000921603 -9.68643e-05)
(-0.00335876 -0.00334036 -0.000351086)
(0.00475 -8.67781e-19 -9.12074e-20)
(-0.00394948 -0.0026245 -0.000275846)
(0.00465873 0.000921603 9.68643e-05)
(-0.00438843 -0.00180779 -0.000190006)
(0.00438843 0.00180779 0.000190006)
(-0.00465873 -0.000921603 -9.68643e-05)
(0.00394948 0.0026245 0.000275846)
(-0.00475 2.8926e-19 3.04025e-20)
(0.00335876 0.00334036 0.000351086)
(-0.00465873 0.000921603 9.68643e-05)
(0 0.00472398 0.00049651)
(0.000926679 0.00463321 0.00048697)
(0.00181775 0.00436439 0.000458716)
(0.00263896 0.00392785 0.000412833)
(-0.00438843 0.00180779 0.000190006)
(-0.000926679 0.00463321 0.00048697)
(-0.00394948 0.0026245 0.000275846)
(-0.00335876 0.00334036 0.000351086)
(-0.00263896 0.00392785 0.000412833)
(-0.00181775 0.00436439 0.000458716)
)


// edges:

32
(
(0 1)
(2 0)
(1 3)
(4 2)
(3 5)
(6 4)
(5 7)
(8 6)
(7 9)
(10 8)
(9 11)
(12 10)
(11 13)
(14 12)
(13 15)
(16 14)
(15 17)
(18 16)
(17 19)
(20 18)
(19 21)
(22 23)
(23 24)
(25 20)
(21 26)
(27 22)
(24 25)
(26 28)
(29 30)
(31 27)
(30 31)
(28 29)
)

// * * * * * * * * * * * * * * * * * * * * * * * * * * * * * * * * * * * * * //


// ************************************************************************* //
