/*--------------------------------*- C++ -*----------------------------------*\
  =========                 |
  \\      /  F ield         | OpenFOAM: The Open Source CFD Toolbox
   \\    /   O peration     | Website:  https://openfoam.org
    \\  /    A nd           | Version:  9
     \\/     M anipulation  |
\*---------------------------------------------------------------------------*/
FoamFile
{
    format      ascii;
    class       featureEdgeMesh;
    location    "constant/triSurface";
    object      outlet.eMesh;
}
// * * * * * * * * * * * * * * * * * * * * * * * * * * * * * * * * * * * * * //


// points:

94
(
(0.0216912 -0.027468 1.415)
(0.0234775 -0.0259578 1.415)
(0.0251588 -0.0243317 1.415)
(0.0198081 -0.0288555 1.415)
(0.0267278 -0.022597 1.415)
(0.0178366 -0.0301141 1.415)
(0.0281775 -0.0207613 1.415)
(0.0157854 -0.0312382 1.415)
(0.0295012 -0.0188329 1.415)
(0.0136636 -0.0322227 1.415)
(0.0306932 -0.0168204 1.415)
(0.0114809 -0.0330634 1.415)
(0.0317482 -0.0147327 1.415)
(0.00924684 -0.0337564 1.415)
(0.0326613 -0.0125793 1.415)
(0.00697151 -0.0342987 1.415)
(0.0334286 -0.0103696 1.415)
(0.00466504 -0.0346877 1.415)
(0.0340466 -0.00811371 1.415)
(0.00233774 -0.0349218 1.415)
(0.0345125 -0.00582153 1.415)
(0 -0.035 1.415)
(0.0348242 -0.00350335 1.415)
(-0.00233774 -0.0349218 1.415)
(0.0349805 -0.00116952 1.415)
(-0.00466504 -0.0346877 1.415)
(0.0349805 0.00116952 1.415)
(-0.00697151 -0.0342987 1.415)
(0.0348242 0.00350335 1.415)
(-0.00924684 -0.0337564 1.415)
(0.0345125 0.00582153 1.415)
(-0.0114809 -0.0330634 1.415)
(0.0340466 0.00811371 1.415)
(-0.0136636 -0.0322227 1.415)
(0.0334286 0.0103696 1.415)
(-0.0157854 -0.0312382 1.415)
(0.0326613 0.0125793 1.415)
(-0.0178366 -0.0301141 1.415)
(0.0317482 0.0147327 1.415)
(-0.0198081 -0.0288555 1.415)
(0.0306932 0.0168204 1.415)
(-0.0216912 -0.027468 1.415)
(0.0295012 0.0188329 1.415)
(-0.0234775 -0.0259578 1.415)
(0.0281775 0.0207613 1.415)
(-0.0251588 -0.0243317 1.415)
(0.0267278 0.022597 1.415)
(-0.0267278 -0.022597 1.415)
(0.0251588 0.0243317 1.415)
(-0.0281775 -0.0207613 1.415)
(0.0234775 0.0259578 1.415)
(-0.0295012 -0.0188329 1.415)
(0.0216912 0.027468 1.415)
(-0.0306932 -0.0168204 1.415)
(0.0198081 0.0288555 1.415)
(-0.0317482 -0.0147327 1.415)
(0.0178366 0.0301141 1.415)
(-0.0326613 -0.0125793 1.415)
(0.0157854 0.0312382 1.415)
(-0.0334286 -0.0103696 1.415)
(0.0136636 0.0322227 1.415)
(-0.0340466 -0.00811371 1.415)
(0.0114809 0.0330634 1.415)
(-0.0345125 -0.00582153 1.415)
(0.00924684 0.0337564 1.415)
(-0.0348242 -0.00350335 1.415)
(0.00697151 0.0342987 1.415)
(-0.0349805 -0.00116952 1.415)
(0.00466504 0.0346877 1.415)
(-0.0349805 0.00116952 1.415)
(-0.0348242 0.00350335 1.415)
(-0.0345125 0.00582153 1.415)
(0.00233774 0.0349218 1.415)
(-0.0340466 0.00811371 1.415)
(0 0.035 1.415)
(-0.0334286 0.0103696 1.415)
(-0.00233774 0.0349218 1.415)
(-0.0326613 0.0125793 1.415)
(-0.00466504 0.0346877 1.415)
(-0.0317482 0.0147327 1.415)
(-0.00697151 0.0342987 1.415)
(-0.0306932 0.0168204 1.415)
(-0.00924684 0.0337564 1.415)
(-0.0295012 0.0188329 1.415)
(-0.0114809 0.0330634 1.415)
(-0.0136636 0.0322227 1.415)
(-0.0157854 0.0312382 1.415)
(-0.0198081 0.0288555 1.415)
(-0.0216912 0.027468 1.415)
(-0.0281775 0.0207613 1.415)
(-0.0178366 0.0301141 1.415)
(-0.0234775 0.0259578 1.415)
(-0.0267278 0.022597 1.415)
(-0.0251588 0.0243317 1.415)
)


// edges:

94
(
(0 1)
(1 2)
(3 0)
(2 4)
(5 3)
(4 6)
(7 5)
(6 8)
(9 7)
(8 10)
(11 9)
(10 12)
(13 11)
(12 14)
(15 13)
(14 16)
(17 15)
(16 18)
(19 17)
(18 20)
(21 19)
(20 22)
(23 21)
(22 24)
(25 23)
(24 26)
(27 25)
(26 28)
(29 27)
(28 30)
(31 29)
(30 32)
(33 31)
(32 34)
(35 33)
(34 36)
(37 35)
(36 38)
(39 37)
(38 40)
(41 39)
(40 42)
(43 41)
(42 44)
(45 43)
(44 46)
(47 45)
(46 48)
(49 47)
(48 50)
(51 49)
(50 52)
(53 51)
(52 54)
(55 53)
(54 56)
(57 55)
(56 58)
(59 57)
(58 60)
(61 59)
(60 62)
(63 61)
(62 64)
(65 63)
(64 66)
(67 65)
(66 68)
(69 67)
(70 69)
(71 70)
(68 72)
(73 71)
(72 74)
(75 73)
(74 76)
(77 75)
(76 78)
(79 77)
(78 80)
(81 79)
(80 82)
(83 81)
(82 84)
(85 86)
(87 88)
(89 83)
(84 85)
(86 90)
(90 87)
(88 91)
(92 89)
(91 93)
(93 92)
)

// * * * * * * * * * * * * * * * * * * * * * * * * * * * * * * * * * * * * * //


// ************************************************************************* //
