/*--------------------------------*- C++ -*----------------------------------*\
  =========                 |
  \\      /  F ield         | OpenFOAM: The Open Source CFD Toolbox
   \\    /   O peration     | Website:  https://openfoam.org
    \\  /    A nd           | Version:  9
     \\/     M anipulation  |
\*---------------------------------------------------------------------------*/
FoamFile
{
    format      ascii;
    class       featureEdgeMesh;
    location    "constant/triSurface";
    object      w_lance_3.eMesh;
}
// * * * * * * * * * * * * * * * * * * * * * * * * * * * * * * * * * * * * * //


// points:

64
(
(-0.00155019 0.00269571 -0.1)
(0 0.00254177 -0.1)
(0.00155019 0.00269571 -0.1)
(-0.00303989 0.00315132 -0.1)
(0.00303989 0.00315132 -0.1)
(-0.00441126 0.00389036 -0.1)
(0.00441126 0.00389036 -0.1)
(-0.00561151 0.00488348 -0.1)
(0.00561151 0.00488348 -0.1)
(-0.00659497 0.00609168 -0.1)
(0.00659497 0.00609168 -0.1)
(-0.00732468 0.00746809 -0.1)
(0.00732468 0.00746809 -0.1)
(-0.00777353 0.00895991 -0.1)
(0.00777353 0.00895991 -0.1)
(-0.007925 0.0105104 -0.1)
(0.007925 0.0105104 -0.1)
(-0.00777353 0.0120609 -0.1)
(0.00777353 0.0120609 -0.1)
(-0.00732468 0.0135528 -0.1)
(0.00732468 0.0135528 -0.1)
(-0.00659497 0.0149292 -0.1)
(0.00659497 0.0149292 -0.1)
(-0.00561151 0.0161374 -0.1)
(0.00561151 0.0161374 -0.1)
(-0.00441126 0.0171305 -0.1)
(0.00441126 0.0171305 -0.1)
(-0.00303989 0.0178695 -0.1)
(0.00303989 0.0178695 -0.1)
(-0.00155019 0.0183251 -0.1)
(0.00155019 0.0183251 -0.1)
(0 0.0184791 -0.1)
(0 -0.00788159 -0.000828388)
(-0.00154609 -0.00773014 -0.000812471)
(0.00154609 -0.00773014 -0.000812471)
(-0.00303277 -0.00728164 -0.000765331)
(0.00303277 -0.00728164 -0.000765331)
(-0.00440289 -0.0065533 -0.00068878)
(0.00440289 -0.0065533 -0.00068878)
(-0.00560382 -0.00557312 -0.000585759)
(0.00560382 -0.00557312 -0.000585759)
(-0.0065894 -0.00437877 -0.000460228)
(0.0065894 -0.00437877 -0.000460228)
(-0.00732175 -0.00301615 -0.00031701)
(0.00732175 -0.00301615 -0.00031701)
(-0.00777272 -0.00153762 -0.000161611)
(0.00777272 -0.00153762 -0.000161611)
(-0.007925 4.82608e-19 5.07241e-20)
(0.007925 -1.44782e-18 -1.52172e-19)
(-0.00777272 0.00153762 0.000161611)
(0.00777272 0.00153762 0.000161611)
(-0.00732175 0.00301615 0.00031701)
(0.00732175 0.00301615 0.00031701)
(-0.0065894 0.00437877 0.000460228)
(0.0065894 0.00437877 0.000460228)
(-0.00560382 0.00557312 0.000585759)
(0.00560382 0.00557312 0.000585759)
(-0.00440289 0.0065533 0.00068878)
(0.00440289 0.0065533 0.00068878)
(-0.00303277 0.00728164 0.000765331)
(0.00303277 0.00728164 0.000765331)
(-0.00154609 0.00773014 0.000812471)
(0.00154609 0.00773014 0.000812471)
(0 0.00788159 0.000828388)
)


// edges:

64
(
(0 1)
(1 2)
(3 0)
(2 4)
(5 3)
(4 6)
(7 5)
(6 8)
(9 7)
(8 10)
(11 9)
(10 12)
(13 11)
(12 14)
(15 13)
(14 16)
(17 15)
(16 18)
(19 17)
(18 20)
(21 19)
(20 22)
(23 21)
(22 24)
(25 23)
(24 26)
(27 25)
(26 28)
(29 27)
(28 30)
(31 29)
(30 31)
(32 33)
(34 32)
(33 35)
(36 34)
(35 37)
(38 36)
(37 39)
(40 38)
(39 41)
(42 40)
(41 43)
(44 42)
(43 45)
(46 44)
(45 47)
(48 46)
(47 49)
(50 48)
(49 51)
(52 50)
(51 53)
(54 52)
(53 55)
(56 54)
(55 57)
(58 56)
(57 59)
(60 58)
(59 61)
(62 60)
(61 63)
(63 62)
)

// * * * * * * * * * * * * * * * * * * * * * * * * * * * * * * * * * * * * * //


// ************************************************************************* //
