/*--------------------------------*- C++ -*----------------------------------*\
  =========                 |
  \\      /  F ield         | OpenFOAM: The Open Source CFD Toolbox
   \\    /   O peration     | Website:  https://openfoam.org
    \\  /    A nd           | Version:  9
     \\/     M anipulation  |
\*---------------------------------------------------------------------------*/
FoamFile
{
    format      ascii;
    class       featureEdgeMesh;
    location    "constant/triSurface";
    object      w_lance_2.eMesh;
}
// * * * * * * * * * * * * * * * * * * * * * * * * * * * * * * * * * * * * * //


// points:

64
(
(0 0.00412545 -0.1)
(-0.00124211 0.00424879 -0.1)
(0.00124211 0.00424879 -0.1)
(-0.00243575 0.00461385 -0.1)
(0.00243575 0.00461385 -0.1)
(-0.00353458 0.00520602 -0.1)
(0.00353458 0.00520602 -0.1)
(-0.00449629 0.00600177 -0.1)
(0.00449629 0.00600177 -0.1)
(-0.0052843 0.00696985 -0.1)
(0.0052843 0.00696985 -0.1)
(-0.00586899 0.00807271 -0.1)
(0.00586899 0.00807271 -0.1)
(-0.00622863 0.00926806 -0.1)
(0.00622863 0.00926806 -0.1)
(-0.00635 0.0105104 -0.1)
(0.00635 0.0105104 -0.1)
(-0.00622863 0.0117528 -0.1)
(0.00622863 0.0117528 -0.1)
(-0.00586899 0.0129481 -0.1)
(0.00586899 0.0129481 -0.1)
(-0.0052843 0.014051 -0.1)
(0.0052843 0.014051 -0.1)
(-0.00449629 0.0150191 -0.1)
(0.00449629 0.0150191 -0.1)
(-0.00353458 0.0158148 -0.1)
(0.00353458 0.0158148 -0.1)
(-0.00243575 0.016407 -0.1)
(0.00243575 0.016407 -0.1)
(-0.00124211 0.0167721 -0.1)
(0.00124211 0.0167721 -0.1)
(0 0.0168954 -0.1)
(-0.00123882 -0.00619387 -0.000651002)
(0 -0.00631521 -0.000663756)
(0.00123882 -0.00619387 -0.000651002)
(-0.00243004 -0.0058345 -0.00061323)
(0.00243004 -0.0058345 -0.00061323)
(-0.00352787 -0.00525091 -0.000551893)
(0.00352787 -0.00525091 -0.000551893)
(-0.00449013 -0.00446553 -0.000469346)
(0.00449013 -0.00446553 -0.000469346)
(-0.00527983 -0.00350854 -0.000368763)
(0.00527983 -0.00350854 -0.000368763)
(-0.00586664 -0.00241673 -0.000254008)
(0.00586664 -0.00241673 -0.000254008)
(-0.00622799 -0.00123204 -0.000129492)
(0.00622799 -0.00123204 -0.000129492)
(-0.00635 3.86695e-19 4.06433e-20)
(0.00635 -1.16009e-18 -1.2193e-19)
(-0.00622799 0.00123204 0.000129492)
(0.00622799 0.00123204 0.000129492)
(-0.00586664 0.00241673 0.000254008)
(0.00586664 0.00241673 0.000254008)
(-0.00527983 0.00350854 0.000368763)
(0.00527983 0.00350854 0.000368763)
(-0.00449013 0.00446553 0.000469346)
(0.00449013 0.00446553 0.000469346)
(-0.00352787 0.00525091 0.000551893)
(0.00352787 0.00525091 0.000551893)
(-0.00243004 0.0058345 0.00061323)
(0.00243004 0.0058345 0.00061323)
(-0.00123882 0.00619387 0.000651002)
(0.00123882 0.00619387 0.000651002)
(0 0.00631521 0.000663756)
)


// edges:

64
(
(0 1)
(2 0)
(1 3)
(4 2)
(3 5)
(6 4)
(5 7)
(8 6)
(7 9)
(10 8)
(9 11)
(12 10)
(11 13)
(14 12)
(13 15)
(16 14)
(15 17)
(18 16)
(17 19)
(20 18)
(19 21)
(22 20)
(21 23)
(24 22)
(23 25)
(26 24)
(25 27)
(28 26)
(27 29)
(30 28)
(29 31)
(31 30)
(32 33)
(33 34)
(35 32)
(34 36)
(37 35)
(36 38)
(39 37)
(38 40)
(41 39)
(40 42)
(43 41)
(42 44)
(45 43)
(44 46)
(47 45)
(46 48)
(49 47)
(48 50)
(51 49)
(50 52)
(53 51)
(52 54)
(55 53)
(54 56)
(57 55)
(56 58)
(59 57)
(58 60)
(61 59)
(60 62)
(63 61)
(62 63)
)

// * * * * * * * * * * * * * * * * * * * * * * * * * * * * * * * * * * * * * //


// ************************************************************************* //
