/*--------------------------------*- C++ -*----------------------------------*\
  =========                 |
  \\      /  F ield         | OpenFOAM: The Open Source CFD Toolbox
   \\    /   O peration     | Website:  https://openfoam.org
    \\  /    A nd           | Version:  9
     \\/     M anipulation  |
\*---------------------------------------------------------------------------*/
FoamFile
{
    format      ascii;
    class       featureEdgeMesh;
    location    "constant/triSurface";
    object      w_lance.eMesh;
}
// * * * * * * * * * * * * * * * * * * * * * * * * * * * * * * * * * * * * * //


// points:

160
(
(0.00154609 -0.00773014 -0.000812471)
(0.00303277 -0.00728164 -0.000765331)
(0.00440289 -0.0065533 -0.00068878)
(0 -0.00788159 -0.000828388)
(0.00560382 -0.00557312 -0.000585759)
(-0.00154609 -0.00773014 -0.000812471)
(0.0065894 -0.00437877 -0.000460228)
(-0.00303277 -0.00728164 -0.000765331)
(0.00732175 -0.00301615 -0.00031701)
(-0.00440289 -0.0065533 -0.00068878)
(0.00777272 -0.00153762 -0.000161611)
(-0.00560382 -0.00557312 -0.000585759)
(0.00243004 -0.0058345 -0.00061323)
(0.00123882 -0.00619387 -0.000651002)
(0.007925 -1.44782e-18 -1.52172e-19)
(0.00352787 -0.00525091 -0.000551893)
(-0.0065894 -0.00437877 -0.000460228)
(0 -0.00631521 -0.000663756)
(0.00777272 0.00153762 0.000161611)
(0.00449013 -0.00446553 -0.000469346)
(-0.00123882 -0.00619387 -0.000651002)
(-0.00732175 -0.00301615 -0.00031701)
(0.000926679 -0.00463321 -0.00048697)
(0.00181775 -0.00436439 -0.000458716)
(0.00732175 0.00301615 0.00031701)
(0.00527983 -0.00350854 -0.000368763)
(0.00263896 -0.00392785 -0.000412833)
(-0.00243004 -0.0058345 -0.00061323)
(-0.00777272 -0.00153762 -0.000161611)
(0 -0.00472398 -0.00049651)
(0.0065894 0.00437877 0.000460228)
(0.00586664 -0.00241673 -0.000254008)
(0.00335876 -0.00334036 -0.000351086)
(-0.000926679 -0.00463321 -0.00048697)
(-0.00352787 -0.00525091 -0.000551893)
(-0.007925 4.82608e-19 5.07241e-20)
(0.00560382 0.00557312 0.000585759)
(0.00622799 -0.00123204 -0.000129492)
(0.00394948 -0.0026245 -0.000275846)
(-0.00181775 -0.00436439 -0.000458716)
(-0.00449013 -0.00446553 -0.000469346)
(-0.00777272 0.00153762 0.000161611)
(0.00440289 0.0065533 0.00068878)
(0.00635 -1.16009e-18 -1.2193e-19)
(0.00438843 -0.00180779 -0.000190006)
(-0.00263896 -0.00392785 -0.000412833)
(-0.00527983 -0.00350854 -0.000368763)
(-0.00732175 0.00301615 0.00031701)
(0.00303277 0.00728164 0.000765331)
(0.00622799 0.00123204 0.000129492)
(0.00465873 -0.000921603 -9.68643e-05)
(-0.00335876 -0.00334036 -0.000351086)
(-0.00586664 -0.00241673 -0.000254008)
(-0.0065894 0.00437877 0.000460228)
(0.00154609 0.00773014 0.000812471)
(0.00586664 0.00241673 0.000254008)
(0.00475 -8.67781e-19 -9.12074e-20)
(-0.00394948 -0.0026245 -0.000275846)
(-0.00622799 -0.00123204 -0.000129492)
(-0.00560382 0.00557312 0.000585759)
(0 0.00788159 0.000828388)
(0.00527983 0.00350854 0.000368763)
(0.00465873 0.000921603 9.68643e-05)
(-0.00438843 -0.00180779 -0.000190006)
(-0.00635 3.86695e-19 4.06433e-20)
(-0.00440289 0.0065533 0.00068878)
(-0.00154609 0.00773014 0.000812471)
(0.00449013 0.00446553 0.000469346)
(0.00438843 0.00180779 0.000190006)
(-0.00465873 -0.000921603 -9.68643e-05)
(-0.00622799 0.00123204 0.000129492)
(-0.00303277 0.00728164 0.000765331)
(0.00352787 0.00525091 0.000551893)
(0.00394948 0.0026245 0.000275846)
(-0.00475 2.8926e-19 3.04025e-20)
(-0.00586664 0.00241673 0.000254008)
(0.00243004 0.0058345 0.00061323)
(0.00335876 0.00334036 0.000351086)
(-0.00465873 0.000921603 9.68643e-05)
(-0.00527983 0.00350854 0.000368763)
(0.00123882 0.00619387 0.000651002)
(0.00263896 0.00392785 0.000412833)
(-0.00438843 0.00180779 0.000190006)
(-0.00449013 0.00446553 0.000469346)
(0 0.00631521 0.000663756)
(0.00181775 0.00436439 0.000458716)
(-0.00394948 0.0026245 0.000275846)
(-0.00352787 0.00525091 0.000551893)
(0.000926679 0.00463321 0.00048697)
(0 0.00472398 0.00049651)
(-0.00123882 0.00619387 0.000651002)
(-0.000926679 0.00463321 0.00048697)
(-0.00335876 0.00334036 0.000351086)
(-0.00243004 0.0058345 0.00061323)
(-0.00263896 0.00392785 0.000412833)
(-0.00181775 0.00436439 0.000458716)
(0.00365362 0.00166557 -0.1)
(0.00186316 0.00111797 -0.1)
(0.00530186 0.00255382 -0.1)
(0 0.000932957 -0.1)
(0.00674444 0.00374744 -0.1)
(-0.00186316 0.00111797 -0.1)
(0.00792645 0.00519956 -0.1)
(-0.00365362 0.00166557 -0.1)
(0.00880348 0.00685386 -0.1)
(-0.00530186 0.00255382 -0.1)
(0.00934295 0.00864687 -0.1)
(-0.00674444 0.00374744 -0.1)
(0.009525 0.0105104 -0.1)
(-0.00792645 0.00519956 -0.1)
(0.00934295 0.012374 -0.1)
(-0.00880348 0.00685386 -0.1)
(0.00880348 0.014167 -0.1)
(-0.00934295 0.00864687 -0.1)
(0.00792645 0.0158213 -0.1)
(-0.009525 0.0105104 -0.1)
(0.00674444 0.0172734 -0.1)
(-0.00934295 0.012374 -0.1)
(0.00530186 0.018467 -0.1)
(-0.00880348 0.014167 -0.1)
(0.00365362 0.0193553 -0.1)
(-0.00792645 0.0158213 -0.1)
(0.00186316 0.0199029 -0.1)
(-0.00674444 0.0172734 -0.1)
(0 0.0200879 -0.1)
(-0.00530186 0.018467 -0.1)
(-0.00186316 0.0199029 -0.1)
(-0.00365362 0.0193553 -0.1)
(0.00185824 -0.0092908 -0.000976503)
(0.00364506 -0.00875175 -0.000919846)
(0.00529181 -0.00787636 -0.000827839)
(0 -0.00947282 -0.000995634)
(0.00673519 -0.0066983 -0.000704019)
(-0.00185824 -0.0092908 -0.000976503)
(0.00791975 -0.00526282 -0.000553144)
(-0.00364506 -0.00875175 -0.000919846)
(0.00879995 -0.00362509 -0.000381012)
(-0.00529181 -0.00787636 -0.000827839)
(0.00934198 -0.00184806 -0.000194238)
(-0.00673519 -0.0066983 -0.000704019)
(0.009525 5.80043e-19 6.0965e-20)
(-0.00791975 -0.00526282 -0.000553144)
(0.00934198 0.00184806 0.000194238)
(-0.00879995 -0.00362509 -0.000381012)
(0.00879995 0.00362509 0.000381012)
(-0.00934198 -0.00184806 -0.000194238)
(0.00791975 0.00526282 0.000553144)
(-0.009525 -1.74013e-18 -1.82895e-19)
(0.00673519 0.0066983 0.000704019)
(-0.00934198 0.00184806 0.000194238)
(0.00529181 0.00787636 0.000827839)
(-0.00879995 0.00362509 0.000381012)
(0.00364506 0.00875175 0.000919846)
(-0.00791975 0.00526282 0.000553144)
(0.00185824 0.0092908 0.000976503)
(-0.00673519 0.0066983 0.000704019)
(0 0.00947282 0.000995634)
(-0.00529181 0.00787636 0.000827839)
(-0.00185824 0.0092908 0.000976503)
(-0.00364506 0.00875175 0.000919846)
)


// edges:

160
(
(128 129)
(129 130)
(131 128)
(130 132)
(133 131)
(132 134)
(135 133)
(134 136)
(137 135)
(136 138)
(139 137)
(138 140)
(141 139)
(140 142)
(143 141)
(142 144)
(145 143)
(144 146)
(147 145)
(146 148)
(149 147)
(148 150)
(151 149)
(150 152)
(153 151)
(152 154)
(155 153)
(154 156)
(157 155)
(156 158)
(159 157)
(158 159)
(0 1)
(1 2)
(3 0)
(2 4)
(5 3)
(4 6)
(7 5)
(6 8)
(9 7)
(8 10)
(11 9)
(12 13)
(10 14)
(15 12)
(16 11)
(13 17)
(14 18)
(19 15)
(17 20)
(21 16)
(22 23)
(18 24)
(25 19)
(23 26)
(20 27)
(28 21)
(29 22)
(24 30)
(31 25)
(26 32)
(33 29)
(27 34)
(35 28)
(30 36)
(37 31)
(32 38)
(39 33)
(34 40)
(41 35)
(36 42)
(43 37)
(38 44)
(45 39)
(40 46)
(47 41)
(42 48)
(49 43)
(44 50)
(51 45)
(46 52)
(53 47)
(48 54)
(55 49)
(50 56)
(57 51)
(52 58)
(59 53)
(54 60)
(61 55)
(56 62)
(63 57)
(58 64)
(65 59)
(60 66)
(67 61)
(62 68)
(69 63)
(64 70)
(71 65)
(66 71)
(72 67)
(68 73)
(74 69)
(70 75)
(76 72)
(73 77)
(78 74)
(75 79)
(80 76)
(77 81)
(82 78)
(79 83)
(84 80)
(81 85)
(86 82)
(83 87)
(88 89)
(85 88)
(90 84)
(89 91)
(92 86)
(87 93)
(93 90)
(94 92)
(91 95)
(95 94)
(96 97)
(98 96)
(97 99)
(100 98)
(99 101)
(102 100)
(101 103)
(104 102)
(103 105)
(106 104)
(105 107)
(108 106)
(107 109)
(110 108)
(109 111)
(112 110)
(111 113)
(114 112)
(113 115)
(116 114)
(115 117)
(118 116)
(117 119)
(120 118)
(119 121)
(122 120)
(121 123)
(124 122)
(123 125)
(126 124)
(125 127)
(127 126)
)

// * * * * * * * * * * * * * * * * * * * * * * * * * * * * * * * * * * * * * //


// ************************************************************************* //
