/*--------------------------------*- C++ -*----------------------------------*\
  =========                 |
  \\      /  F ield         | OpenFOAM: The Open Source CFD Toolbox
   \\    /   O peration     | Website:  https://openfoam.org
    \\  /    A nd           | Version:  9
     \\/     M anipulation  |
\*---------------------------------------------------------------------------*/
FoamFile
{
    format      ascii;
    class       featureEdgeMesh;
    location    "constant/triSurface";
    object      w_raceway.eMesh;
}
// * * * * * * * * * * * * * * * * * * * * * * * * * * * * * * * * * * * * * //


// points:

470
(
(0.0234775 -0.0259578 1.415)
(0.0216912 -0.027468 1.415)
(0.0251588 -0.0243317 1.415)
(0.0198081 -0.0288555 1.415)
(0.0267278 -0.022597 1.415)
(0.0178366 -0.0301141 1.415)
(0.0281775 -0.0207613 1.415)
(0.0157854 -0.0312382 1.415)
(0.0295012 -0.0188329 1.415)
(0.0136636 -0.0322227 1.415)
(0.0306932 -0.0168204 1.415)
(0.0114809 -0.0330634 1.415)
(0.0317482 -0.0147327 1.415)
(0.00924684 -0.0337564 1.415)
(0.0326613 -0.0125793 1.415)
(0.00697151 -0.0342987 1.415)
(0.0334286 -0.0103696 1.415)
(0.00466504 -0.0346877 1.415)
(0.0340466 -0.00811371 1.415)
(0.00233774 -0.0349218 1.415)
(0.0345125 -0.00582153 1.415)
(0 -0.035 1.415)
(0.0348242 -0.00350335 1.415)
(-0.00233774 -0.0349218 1.415)
(0.0349805 -0.00116952 1.415)
(-0.00466504 -0.0346877 1.415)
(0.0349805 0.00116952 1.415)
(-0.00697151 -0.0342987 1.415)
(0.0348242 0.00350335 1.415)
(-0.00924684 -0.0337564 1.415)
(0.0345125 0.00582153 1.415)
(-0.0114809 -0.0330634 1.415)
(0.0340466 0.00811371 1.415)
(-0.0136636 -0.0322227 1.415)
(0.0334286 0.0103696 1.415)
(-0.0157854 -0.0312382 1.415)
(0.0326613 0.0125793 1.415)
(-0.0178366 -0.0301141 1.415)
(0.0317482 0.0147327 1.415)
(-0.0198081 -0.0288555 1.415)
(0.0306932 0.0168204 1.415)
(-0.0216912 -0.027468 1.415)
(0.0295012 0.0188329 1.415)
(-0.0234775 -0.0259578 1.415)
(0.0281775 0.0207613 1.415)
(-0.0251588 -0.0243317 1.415)
(0.0267278 0.022597 1.415)
(-0.0267278 -0.022597 1.415)
(0.0251588 0.0243317 1.415)
(-0.0281775 -0.0207613 1.415)
(0.0234775 0.0259578 1.415)
(-0.0295012 -0.0188329 1.415)
(0.0216912 0.027468 1.415)
(-0.0306932 -0.0168204 1.415)
(0.0198081 0.0288555 1.415)
(-0.0317482 -0.0147327 1.415)
(0.0178366 0.0301141 1.415)
(-0.0326613 -0.0125793 1.415)
(0.0157854 0.0312382 1.415)
(-0.0334286 -0.0103696 1.415)
(0.0136636 0.0322227 1.415)
(-0.0340466 -0.00811371 1.415)
(0.0114809 0.0330634 1.415)
(-0.0345125 -0.00582153 1.415)
(0.00924684 0.0337564 1.415)
(-0.0348242 -0.00350335 1.415)
(0.00697151 0.0342987 1.415)
(-0.0349805 -0.00116952 1.415)
(0.00466504 0.0346877 1.415)
(-0.0349805 0.00116952 1.415)
(-0.0348242 0.00350335 1.415)
(-0.0345125 0.00582153 1.415)
(0.00233774 0.0349218 1.415)
(-0.0340466 0.00811371 1.415)
(0 0.035 1.415)
(-0.0334286 0.0103696 1.415)
(-0.00233774 0.0349218 1.415)
(-0.0326613 0.0125793 1.415)
(-0.00466504 0.0346877 1.415)
(-0.0317482 0.0147327 1.415)
(-0.00697151 0.0342987 1.415)
(-0.0306932 0.0168204 1.415)
(-0.00924684 0.0337564 1.415)
(-0.0295012 0.0188329 1.415)
(-0.0114809 0.0330634 1.415)
(-0.0157854 0.0312382 1.415)
(-0.0136636 0.0322227 1.415)
(-0.0216912 0.027468 1.415)
(-0.0198081 0.0288555 1.415)
(-0.0281775 0.0207613 1.415)
(-0.0178366 0.0301141 1.415)
(-0.0234775 0.0259578 1.415)
(-0.0267278 0.022597 1.415)
(-0.0251588 0.0243317 1.415)
(0.0216912 -0.027468 0.1)
(0.0234775 -0.0259578 0.1)
(0.0251588 -0.0243317 0.1)
(0.0198081 -0.0288555 0.1)
(0.0267278 -0.022597 0.1)
(0.0178366 -0.0301141 0.1)
(0.0281775 -0.0207613 0.1)
(0.0157854 -0.0312382 0.1)
(0.0295012 -0.0188329 0.1)
(0.0136636 -0.0322227 0.1)
(0.0306932 -0.0168204 0.1)
(0.0114809 -0.0330634 0.1)
(0.0317482 -0.0147327 0.1)
(0.00924684 -0.0337564 0.1)
(0.0326613 -0.0125793 0.1)
(0.00697151 -0.0342987 0.1)
(0.0334286 -0.0103696 0.1)
(0.00466504 -0.0346877 0.1)
(0.0340466 -0.00811371 0.1)
(0.00233774 -0.0349218 0.1)
(0.0345125 -0.00582153 0.1)
(0 -0.035 0.1)
(0.0348242 -0.00350335 0.1)
(-0.00233774 -0.0349218 0.1)
(0.0349805 -0.00116952 0.1)
(-0.00466504 -0.0346877 0.1)
(0.0349805 0.00116952 0.1)
(-0.00697151 -0.0342987 0.1)
(0.0348242 0.00350335 0.1)
(-0.00924684 -0.0337564 0.1)
(0.0345125 0.00582153 0.1)
(-0.0114809 -0.0330634 0.1)
(0.0340466 0.00811371 0.1)
(-0.0136636 -0.0322227 0.1)
(0.0334286 0.0103696 0.1)
(-0.0157854 -0.0312382 0.1)
(0.0326613 0.0125793 0.1)
(-0.0178366 -0.0301141 0.1)
(0.0317482 0.0147327 0.1)
(-0.0198081 -0.0288555 0.1)
(0.0306932 0.0168204 0.1)
(-0.0216912 -0.027468 0.1)
(0.0295012 0.0188329 0.1)
(-0.0234775 -0.0259578 0.1)
(0.0281775 0.0207613 0.1)
(-0.0251588 -0.0243317 0.1)
(0.0267278 0.022597 0.1)
(-0.0267278 -0.022597 0.1)
(0.0251588 0.0243317 0.1)
(-0.0281775 -0.0207613 0.1)
(0.0234775 0.0259578 0.1)
(-0.0295012 -0.0188329 0.1)
(0.0216912 0.027468 0.1)
(-0.0306932 -0.0168204 0.1)
(0.0198081 0.0288555 0.1)
(-0.0317482 -0.0147327 0.1)
(0.0178366 0.0301141 0.1)
(-0.0326613 -0.0125793 0.1)
(0.0157854 0.0312382 0.1)
(-0.0334286 -0.0103696 0.1)
(0.0136636 0.0322227 0.1)
(-0.0340466 -0.00811371 0.1)
(0.0114809 0.0330634 0.1)
(-0.0345125 -0.00582153 0.1)
(0.00924684 0.0337564 0.1)
(-0.0348242 -0.00350335 0.1)
(0.00697151 0.0342987 0.1)
(-0.0349805 -0.00116952 0.1)
(0.00466504 0.0346877 0.1)
(-0.0349805 0.00116952 0.1)
(-0.0348242 0.00350335 0.1)
(-0.0345125 0.00582153 0.1)
(0.00233774 0.0349218 0.1)
(-0.0340466 0.00811371 0.1)
(0 0.035 0.1)
(-0.0334286 0.0103696 0.1)
(-0.00233774 0.0349218 0.1)
(-0.0326613 0.0125793 0.1)
(-0.00466504 0.0346877 0.1)
(-0.0317482 0.0147327 0.1)
(-0.00697151 0.0342987 0.1)
(-0.0306932 0.0168204 0.1)
(-0.00924684 0.0337564 0.1)
(-0.0295012 0.0188329 0.1)
(-0.0114809 0.0330634 0.1)
(-0.0136636 0.0322227 0.1)
(-0.0157854 0.0312382 0.1)
(-0.0198081 0.0288555 0.1)
(-0.0216912 0.027468 0.1)
(-0.0281775 0.0207613 0.1)
(-0.0178366 0.0301141 0.1)
(-0.0234775 0.0259578 0.1)
(-0.0267278 0.022597 0.1)
(-0.0251588 0.0243317 0.1)
(0.0929625 -0.11772 1.115)
(0.100618 -0.111248 1.115)
(0.107824 -0.104279 1.115)
(0.0848921 -0.123666 1.115)
(0.114548 -0.0968442 1.115)
(0.0764425 -0.12906 1.115)
(0.120761 -0.088977 1.115)
(0.0676515 -0.133878 1.115)
(0.126434 -0.0807124 1.115)
(0.0585584 -0.138097 1.115)
(0.131542 -0.0720873 1.115)
(0.0492037 -0.1417 1.115)
(0.136064 -0.0631402 1.115)
(0.0396293 -0.14467 1.115)
(0.139977 -0.0539112 1.115)
(0.0298779 -0.146994 1.115)
(0.143265 -0.0444413 1.115)
(0.019993 -0.148662 1.115)
(0.145914 -0.034773 1.115)
(0.0100189 -0.149665 1.115)
(0.147911 -0.0249494 1.115)
(0 -0.15 1.115)
(0.149247 -0.0150144 1.115)
(-0.0100189 -0.149665 1.115)
(0.149916 -0.00501225 1.115)
(-0.019993 -0.148662 1.115)
(0.149916 0.00501225 1.115)
(-0.0298779 -0.146994 1.115)
(0.149247 0.0150144 1.115)
(-0.0396293 -0.14467 1.115)
(0.147911 0.0249494 1.115)
(-0.0492037 -0.1417 1.115)
(0.145914 0.034773 1.115)
(-0.0585584 -0.138097 1.115)
(0.143265 0.0444413 1.115)
(-0.0676515 -0.133878 1.115)
(0.139977 0.0539112 1.115)
(-0.0764425 -0.12906 1.115)
(0.136064 0.0631402 1.115)
(-0.0848921 -0.123666 1.115)
(0.131542 0.0720873 1.115)
(-0.0929625 -0.11772 1.115)
(0.126434 0.0807124 1.115)
(-0.100618 -0.111248 1.115)
(0.120761 0.088977 1.115)
(-0.107824 -0.104279 1.115)
(0.114548 0.0968442 1.115)
(-0.114548 -0.0968442 1.115)
(0.107824 0.104279 1.115)
(-0.120761 -0.088977 1.115)
(0.100618 0.111248 1.115)
(-0.126434 -0.0807124 1.115)
(0.0929625 0.11772 1.115)
(-0.131542 -0.0720873 1.115)
(0.0848921 0.123666 1.115)
(-0.136064 -0.0631402 1.115)
(0.0764425 0.12906 1.115)
(-0.139977 -0.0539112 1.115)
(0.0676515 0.133878 1.115)
(-0.143265 -0.0444413 1.115)
(0.0585584 0.138097 1.115)
(-0.145914 -0.034773 1.115)
(0.0492037 0.1417 1.115)
(-0.147911 -0.0249494 1.115)
(0.0396293 0.14467 1.115)
(-0.149247 -0.0150144 1.115)
(0.0298779 0.146994 1.115)
(-0.149916 -0.00501225 1.115)
(0.019993 0.148662 1.115)
(-0.149916 0.00501225 1.115)
(-0.149247 0.0150144 1.115)
(-0.147911 0.0249494 1.115)
(0.0100189 0.149665 1.115)
(-0.145914 0.034773 1.115)
(0 0.15 1.115)
(-0.143265 0.0444413 1.115)
(-0.0100189 0.149665 1.115)
(-0.139977 0.0539112 1.115)
(-0.019993 0.148662 1.115)
(-0.136064 0.0631402 1.115)
(-0.0298779 0.146994 1.115)
(-0.131542 0.0720873 1.115)
(-0.0396293 0.14467 1.115)
(-0.126434 0.0807124 1.115)
(-0.0492037 0.1417 1.115)
(-0.0585584 0.138097 1.115)
(-0.0676515 0.133878 1.115)
(-0.0848921 0.123666 1.115)
(-0.0929625 0.11772 1.115)
(-0.120761 0.088977 1.115)
(-0.0764425 0.12906 1.115)
(-0.100618 0.111248 1.115)
(-0.114548 0.0968442 1.115)
(-0.107824 0.104279 1.115)
(0.0929625 -0.11772 0.215)
(0.100618 -0.111248 0.215)
(0.107824 -0.104279 0.215)
(0.0848921 -0.123666 0.215)
(0.114548 -0.0968442 0.215)
(0.0764425 -0.12906 0.215)
(0.120761 -0.088977 0.215)
(0.0676515 -0.133878 0.215)
(0.126434 -0.0807124 0.215)
(0.0585584 -0.138097 0.215)
(0.131542 -0.0720873 0.215)
(0.0492037 -0.1417 0.215)
(0.136064 -0.0631402 0.215)
(0.0396293 -0.14467 0.215)
(0.139977 -0.0539112 0.215)
(0.0298779 -0.146994 0.215)
(0.143265 -0.0444413 0.215)
(0.019993 -0.148662 0.215)
(0.145914 -0.034773 0.215)
(0.0100189 -0.149665 0.215)
(0.147911 -0.0249494 0.215)
(0 -0.15 0.215)
(0.149247 -0.0150144 0.215)
(-0.0100189 -0.149665 0.215)
(0.149916 -0.00501225 0.215)
(-0.019993 -0.148662 0.215)
(0.149916 0.00501225 0.215)
(-0.0298779 -0.146994 0.215)
(0.149247 0.0150144 0.215)
(-0.0396293 -0.14467 0.215)
(0.147911 0.0249494 0.215)
(-0.0492037 -0.1417 0.215)
(0.145914 0.034773 0.215)
(-0.0585584 -0.138097 0.215)
(0.143265 0.0444413 0.215)
(-0.0676515 -0.133878 0.215)
(0.139977 0.0539112 0.215)
(-0.0764425 -0.12906 0.215)
(0.136064 0.0631402 0.215)
(-0.0848921 -0.123666 0.215)
(0.131542 0.0720873 0.215)
(-0.0929625 -0.11772 0.215)
(0.126434 0.0807124 0.215)
(-0.100618 -0.111248 0.215)
(0.120761 0.088977 0.215)
(-0.107824 -0.104279 0.215)
(0.114548 0.0968442 0.215)
(-0.114548 -0.0968442 0.215)
(0.107824 0.104279 0.215)
(-0.120761 -0.088977 0.215)
(0.100618 0.111248 0.215)
(-0.126434 -0.0807124 0.215)
(0.0929625 0.11772 0.215)
(-0.131542 -0.0720873 0.215)
(0.0848921 0.123666 0.215)
(-0.136064 -0.0631402 0.215)
(0.0764425 0.12906 0.215)
(-0.139977 -0.0539112 0.215)
(0.0676515 0.133878 0.215)
(-0.143265 -0.0444413 0.215)
(0.0585584 0.138097 0.215)
(-0.145914 -0.034773 0.215)
(0.0492037 0.1417 0.215)
(-0.147911 -0.0249494 0.215)
(0.0396293 0.14467 0.215)
(-0.149247 -0.0150144 0.215)
(0.0298779 0.146994 0.215)
(-0.149916 -0.00501225 0.215)
(0.019993 0.148662 0.215)
(-0.149916 0.00501225 0.215)
(-0.149247 0.0150144 0.215)
(-0.147911 0.0249494 0.215)
(0.0100189 0.149665 0.215)
(-0.145914 0.034773 0.215)
(0 0.15 0.215)
(-0.143265 0.0444413 0.215)
(-0.0100189 0.149665 0.215)
(-0.139977 0.0539112 0.215)
(-0.019993 0.148662 0.215)
(-0.136064 0.0631402 0.215)
(-0.0298779 0.146994 0.215)
(-0.131542 0.0720873 0.215)
(-0.0396293 0.14467 0.215)
(-0.126434 0.0807124 0.215)
(-0.0492037 0.1417 0.215)
(-0.0585584 0.138097 0.215)
(-0.0676515 0.133878 0.215)
(-0.0848921 0.123666 0.215)
(-0.0929625 0.11772 0.215)
(-0.120761 0.088977 0.215)
(-0.0764425 0.12906 0.215)
(-0.100618 0.111248 0.215)
(-0.114548 0.0968442 0.215)
(-0.107824 0.104279 0.215)
(0.0216912 -0.027468 1.315)
(0.0234775 -0.0259578 1.315)
(0.0251588 -0.0243317 1.315)
(0.0198081 -0.0288555 1.315)
(0.0267278 -0.022597 1.315)
(0.0178366 -0.0301141 1.315)
(0.0281775 -0.0207613 1.315)
(0.0157854 -0.0312382 1.315)
(0.0295012 -0.0188329 1.315)
(0.0136636 -0.0322227 1.315)
(0.0306932 -0.0168204 1.315)
(0.0114809 -0.0330634 1.315)
(0.0317482 -0.0147327 1.315)
(0.00924684 -0.0337564 1.315)
(0.0326613 -0.0125793 1.315)
(0.00697151 -0.0342987 1.315)
(0.0334286 -0.0103696 1.315)
(0.00466504 -0.0346877 1.315)
(0.0340466 -0.00811371 1.315)
(0.00233774 -0.0349218 1.315)
(0.0345125 -0.00582153 1.315)
(0 -0.035 1.315)
(0.0348242 -0.00350335 1.315)
(-0.00233774 -0.0349218 1.315)
(0.0349805 -0.00116952 1.315)
(-0.00466504 -0.0346877 1.315)
(0.0349805 0.00116952 1.315)
(-0.00697151 -0.0342987 1.315)
(0.0348242 0.00350335 1.315)
(-0.00924684 -0.0337564 1.315)
(0.0345125 0.00582153 1.315)
(-0.0114809 -0.0330634 1.315)
(0.0340466 0.00811371 1.315)
(-0.0136636 -0.0322227 1.315)
(0.0334286 0.0103696 1.315)
(-0.0157854 -0.0312382 1.315)
(0.0326613 0.0125793 1.315)
(-0.0178366 -0.0301141 1.315)
(0.0317482 0.0147327 1.315)
(-0.0198081 -0.0288555 1.315)
(0.0306932 0.0168204 1.315)
(-0.0216912 -0.027468 1.315)
(0.0295012 0.0188329 1.315)
(-0.0234775 -0.0259578 1.315)
(0.0281775 0.0207613 1.315)
(-0.0251588 -0.0243317 1.315)
(0.0267278 0.022597 1.315)
(-0.0267278 -0.022597 1.315)
(0.0251588 0.0243317 1.315)
(-0.0281775 -0.0207613 1.315)
(0.0234775 0.0259578 1.315)
(-0.0295012 -0.0188329 1.315)
(0.0216912 0.027468 1.315)
(-0.0306932 -0.0168204 1.315)
(0.0198081 0.0288555 1.315)
(-0.0317482 -0.0147327 1.315)
(0.0178366 0.0301141 1.315)
(-0.0326613 -0.0125793 1.315)
(0.0157854 0.0312382 1.315)
(-0.0334286 -0.0103696 1.315)
(0.0136636 0.0322227 1.315)
(-0.0340466 -0.00811371 1.315)
(0.0114809 0.0330634 1.315)
(-0.0345125 -0.00582153 1.315)
(0.00924684 0.0337564 1.315)
(-0.0348242 -0.00350335 1.315)
(0.00697151 0.0342987 1.315)
(-0.0349805 -0.00116952 1.315)
(0.00466504 0.0346877 1.315)
(-0.0349805 0.00116952 1.315)
(-0.0348242 0.00350335 1.315)
(-0.0345125 0.00582153 1.315)
(0.00233774 0.0349218 1.315)
(-0.0340466 0.00811371 1.315)
(0 0.035 1.315)
(-0.0334286 0.0103696 1.315)
(-0.00233774 0.0349218 1.315)
(-0.0326613 0.0125793 1.315)
(-0.00466504 0.0346877 1.315)
(-0.0317482 0.0147327 1.315)
(-0.00697151 0.0342987 1.315)
(-0.0306932 0.0168204 1.315)
(-0.00924684 0.0337564 1.315)
(-0.0295012 0.0188329 1.315)
(-0.0114809 0.0330634 1.315)
(-0.0136636 0.0322227 1.315)
(-0.0157854 0.0312382 1.315)
(-0.0198081 0.0288555 1.315)
(-0.0216912 0.027468 1.315)
(-0.0281775 0.0207613 1.315)
(-0.0178366 0.0301141 1.315)
(-0.0234775 0.0259578 1.315)
(-0.0267278 0.022597 1.315)
(-0.0251588 0.0243317 1.315)
)


// edges:

470
(
(188 189)
(189 190)
(191 188)
(190 192)
(193 191)
(192 194)
(195 193)
(194 196)
(197 195)
(196 198)
(199 197)
(198 200)
(201 199)
(200 202)
(203 201)
(202 204)
(205 203)
(204 206)
(207 205)
(206 208)
(209 207)
(208 210)
(211 209)
(210 212)
(213 211)
(212 214)
(215 213)
(214 216)
(217 215)
(216 218)
(219 217)
(218 220)
(221 219)
(220 222)
(223 221)
(222 224)
(225 223)
(224 226)
(227 225)
(226 228)
(229 227)
(228 230)
(231 229)
(230 232)
(233 231)
(232 234)
(235 233)
(234 236)
(237 235)
(236 238)
(239 237)
(238 240)
(241 239)
(240 242)
(243 241)
(242 244)
(245 243)
(244 246)
(247 245)
(246 248)
(249 247)
(248 250)
(251 249)
(250 252)
(253 251)
(252 254)
(255 253)
(254 256)
(257 255)
(258 257)
(259 258)
(256 260)
(261 259)
(260 262)
(263 261)
(262 264)
(265 263)
(264 266)
(267 265)
(266 268)
(269 267)
(268 270)
(271 269)
(270 272)
(273 274)
(275 276)
(277 271)
(272 273)
(274 278)
(278 275)
(276 279)
(280 277)
(279 281)
(281 280)
(282 283)
(283 284)
(285 282)
(284 286)
(287 285)
(286 288)
(289 287)
(288 290)
(291 289)
(290 292)
(293 291)
(292 294)
(295 293)
(294 296)
(297 295)
(296 298)
(299 297)
(298 300)
(301 299)
(300 302)
(303 301)
(302 304)
(305 303)
(304 306)
(307 305)
(306 308)
(309 307)
(308 310)
(311 309)
(310 312)
(313 311)
(312 314)
(315 313)
(314 316)
(317 315)
(316 318)
(319 317)
(318 320)
(321 319)
(320 322)
(323 321)
(322 324)
(325 323)
(324 326)
(327 325)
(326 328)
(329 327)
(328 330)
(331 329)
(330 332)
(333 331)
(332 334)
(335 333)
(334 336)
(337 335)
(336 338)
(339 337)
(338 340)
(341 339)
(340 342)
(343 341)
(342 344)
(345 343)
(344 346)
(347 345)
(346 348)
(349 347)
(348 350)
(351 349)
(352 351)
(353 352)
(350 354)
(355 353)
(354 356)
(357 355)
(356 358)
(359 357)
(358 360)
(361 359)
(360 362)
(363 361)
(362 364)
(365 363)
(364 366)
(367 368)
(369 370)
(371 365)
(366 367)
(368 372)
(372 369)
(370 373)
(374 371)
(373 375)
(375 374)
(376 377)
(377 378)
(379 376)
(378 380)
(381 379)
(380 382)
(383 381)
(382 384)
(385 383)
(384 386)
(387 385)
(386 388)
(389 387)
(388 390)
(391 389)
(390 392)
(393 391)
(392 394)
(395 393)
(394 396)
(397 395)
(396 398)
(399 397)
(398 400)
(401 399)
(400 402)
(403 401)
(402 404)
(405 403)
(404 406)
(407 405)
(406 408)
(409 407)
(408 410)
(411 409)
(410 412)
(413 411)
(412 414)
(415 413)
(414 416)
(417 415)
(416 418)
(419 417)
(418 420)
(421 419)
(420 422)
(423 421)
(422 424)
(425 423)
(424 426)
(427 425)
(426 428)
(429 427)
(428 430)
(431 429)
(430 432)
(433 431)
(432 434)
(435 433)
(434 436)
(437 435)
(436 438)
(439 437)
(438 440)
(441 439)
(440 442)
(443 441)
(442 444)
(445 443)
(446 445)
(447 446)
(444 448)
(449 447)
(448 450)
(451 449)
(450 452)
(453 451)
(452 454)
(455 453)
(454 456)
(457 455)
(456 458)
(459 457)
(458 460)
(461 462)
(463 464)
(465 459)
(460 461)
(462 466)
(466 463)
(464 467)
(468 465)
(467 469)
(469 468)
(0 1)
(2 0)
(1 3)
(4 2)
(3 5)
(6 4)
(5 7)
(8 6)
(7 9)
(10 8)
(9 11)
(12 10)
(11 13)
(14 12)
(13 15)
(16 14)
(15 17)
(18 16)
(17 19)
(20 18)
(19 21)
(22 20)
(21 23)
(24 22)
(23 25)
(26 24)
(25 27)
(28 26)
(27 29)
(30 28)
(29 31)
(32 30)
(31 33)
(34 32)
(33 35)
(36 34)
(35 37)
(38 36)
(37 39)
(40 38)
(39 41)
(42 40)
(41 43)
(44 42)
(43 45)
(46 44)
(45 47)
(48 46)
(47 49)
(50 48)
(49 51)
(52 50)
(51 53)
(54 52)
(53 55)
(56 54)
(55 57)
(58 56)
(57 59)
(60 58)
(59 61)
(62 60)
(61 63)
(64 62)
(63 65)
(66 64)
(65 67)
(68 66)
(67 69)
(69 70)
(70 71)
(72 68)
(71 73)
(74 72)
(73 75)
(76 74)
(75 77)
(78 76)
(77 79)
(80 78)
(79 81)
(82 80)
(81 83)
(84 82)
(85 86)
(87 88)
(83 89)
(86 84)
(90 85)
(88 90)
(91 87)
(89 92)
(93 91)
(92 93)
(94 95)
(95 96)
(97 94)
(96 98)
(99 97)
(98 100)
(101 99)
(100 102)
(103 101)
(102 104)
(105 103)
(104 106)
(107 105)
(106 108)
(109 107)
(108 110)
(111 109)
(110 112)
(113 111)
(112 114)
(115 113)
(114 116)
(117 115)
(116 118)
(119 117)
(118 120)
(121 119)
(120 122)
(123 121)
(122 124)
(125 123)
(124 126)
(127 125)
(126 128)
(129 127)
(128 130)
(131 129)
(130 132)
(133 131)
(132 134)
(135 133)
(134 136)
(137 135)
(136 138)
(139 137)
(138 140)
(141 139)
(140 142)
(143 141)
(142 144)
(145 143)
(144 146)
(147 145)
(146 148)
(149 147)
(148 150)
(151 149)
(150 152)
(153 151)
(152 154)
(155 153)
(154 156)
(157 155)
(156 158)
(159 157)
(158 160)
(161 159)
(160 162)
(163 161)
(164 163)
(165 164)
(162 166)
(167 165)
(166 168)
(169 167)
(168 170)
(171 169)
(170 172)
(173 171)
(172 174)
(175 173)
(174 176)
(177 175)
(176 178)
(179 180)
(181 182)
(183 177)
(178 179)
(180 184)
(184 181)
(182 185)
(186 183)
(185 187)
(187 186)
)

// * * * * * * * * * * * * * * * * * * * * * * * * * * * * * * * * * * * * * //


// ************************************************************************* //
