/*--------------------------------*- C++ -*----------------------------------*\
  =========                 |
  \\      /  F ield         | OpenFOAM: The Open Source CFD Toolbox
   \\    /   O peration     | Website:  https://openfoam.org
    \\  /    A nd           | Version:  79 
     \\/     M anipulation  |
\*---------------------------------------------------------------------------*/
FoamFile
{
    format      ascii;
    class       dictionary;
    location    "system";
    object      controlDict;
}
// * * * * * * * * * * * * * * * * * * * * * * * * * * * * * * * * * * * * * //

application     reactingFoam;

startFrom       latestTime;

startTime       0;

stopAt          endTime;

endTime         40000;

deltaT          1;

writeControl    runTime; 

writeInterval   600;

purgeWrite      10;

writeFormat     ascii;

writePrecision  10;

writeCompression off;

timeFormat      general;

timePrecision   6;

runTimeModifiable yes;

libs
(
);

functions
{

    residuals
    {
        functionObjectLibs ("libutilityFunctionObjects.so");
        type            residuals;
        writeFields     yes;
        writeControl    timeStep;
        writeInterval   1;
        writeResidualFields     yes;
        fields
        (
            U
            Uy
            Uz
            O2
            CO2
            tar
            h
            p
            k
            epsilon
        );
    }
}

// ************************************************************************* //
