/*--------------------------------*- C++ -*----------------------------------*\
  =========                 |
  \\      /  F ield         | OpenFOAM: The Open Source CFD Toolbox
   \\    /   O peration     | Website:  https://openfoam.org
    \\  /    A nd           | Version:  9
     \\/     M anipulation  |
\*---------------------------------------------------------------------------*/
FoamFile
{
    format      ascii;
    class       dictionary;
    location    "system";
    object      blockMeshDict;
}
// * * * * * * * * * * * * * * * * * * * * * * * * * * * * * * * * * * * * * //

convertToMeters 1;

vertices
(
	(-0.1064195705685754 -0.10641957056857539 -0.11) 		 //0
	(0.1064195705685754 -0.10641957056857539 -0.11) 		 //1
	(0.07450836580334633 -0.07450836580334633 -0.11) 		 //2
	(-0.07450836580334633 -0.07450836580334633 -0.11) 		 //3
	(-0.07450836580334633 0.07450836580334633 -0.11) 		 //4
	(0.07450836580334633 0.07450836580334633 -0.11) 		 //5
	(0.1064195705685754 0.10641957056857539 -0.11) 		 //6
	(-0.1064195705685754 0.10641957056857539 -0.11) 		 //7
	(-0.1064195705685754 -0.10641957056857539 1.415) 		 //8
	(0.1064195705685754 -0.10641957056857539 1.415) 		 //9
	(0.07450836580334633 -0.07450836580334633 1.415) 		 //10
	(-0.07450836580334633 -0.07450836580334633 1.415) 		 //11
	(-0.07450836580334633 0.07450836580334633 1.415) 		 //12
	(0.07450836580334633 0.07450836580334633 1.415) 		 //13
	(0.1064195705685754 0.10641957056857539 1.415) 		 //14
	(-0.1064195705685754 0.10641957056857539 1.415) 		 //15
);

blocks
(
	 hex ( 3  2  5  4  11  10  13  12 )	(15 15 75)	simpleGrading (1 1 1)
	 hex ( 0  1  2  3  8  9  10  11 )	(15 10 75)	simpleGrading (1 1 1)
	 hex ( 2  1  6  5  10  9  14  13 )	(10 15 75)	simpleGrading (1 1 1)
	 hex ( 4  5  6  7  12  13  14  15 )	(15 10 75)	simpleGrading (1 1 1)
	 hex ( 0  3  4  7  8  11  12  15 )	(10 15 75)	simpleGrading (1 1 1)
);

edges
(
	 arc 0 1	(-2.7646401490751496e-17 -0.1505 -0.105)
	 arc 1 6	(0.1505 -3.686186865433533e-17 -0.105)
	 arc 6 7	(9.215467163583833e-18 0.1505 -0.105)
	 arc 7 0	(-0.1505 1.8430934327167665e-17 -0.105)
	 arc 8 9	(-2.7646401490751496e-17 -0.1505 1.407)
	 arc 9 14	(0.1505 -3.686186865433533e-17 1.407)
	 arc 14 15	(9.215467163583833e-18 0.1505 1.407)
	 arc 15 8	(-0.1505 1.8430934327167665e-17 1.407)
);

boundary
(
	up
	{
		type wall;
		faces
		(
			(0 1 2 3)
			(3 2 5 4)
			(1 6 5 2)
			(6 7 4 5)
			(0 3 4 7)
		);
	}
	down
	{
		type wall;
		faces
		(
			(8 9 10 11)
			(11 10 13 12)
			(9 14 13 10)
			(14 15 12 13)
			(8 11 12 15)
		);
	}
	side
	{
		type wall;
		faces
		(
			(0 1 8 9)
			(1 6 9 14)
			(6 7 14 15)
			(7 0 15 8)
		);
	}
);

mergPatchPairs
(
);

// * * * * * * * * * * * * * * * * * * * * * * * * * * * * * * * * * * * * * //
