/*--------------------------------*- C++ -*----------------------------------*\
  =========                 |
  \\      /  F ield         | OpenFOAM: The Open Source CFD Toolbox
   \\    /   O peration     | Website:  https://openfoam.org
    \\  /    A nd           | Version:  8
     \\/     M anipulation  |
\*---------------------------------------------------------------------------*/
FoamFile
{
    version     2.0;
    format      ascii;
    class       volScalarField;
    location    "0";
    object      nut;
}
// * * * * * * * * * * * * * * * * * * * * * * * * * * * * * * * * * * * * * //

dimensions      [0 2 -1 0 0 0 0];

internalField   uniform 2.45e-3;

boundaryField
{
    bottom
    {
        type            zeroGradient;
    }
    walls
    {
        type            nutkWallFunction;
        value           $internalField;
    }
    top
    {
        type            fixedValue;
        value           uniform 2.45e-3;
    }
    inlet 
    {
        type            fixedValue;
        value           uniform 2.45e-3;
    }
}



// ************************************************************************* //
