/*--------------------------------*- C++ -*----------------------------------*\
  =========                 |
  \\      /  F ield         | OpenFOAM: The Open Source CFD Toolbox
   \\    /   O peration     | Website:  https://openfoam.org
    \\  /    A nd           | Version:  9
     \\/     M anipulation  |
\*---------------------------------------------------------------------------*/
FoamFile
{
    format      ascii;
    class       extendedFeatureEdgeMesh;
    location    "constant/extendedFeatureEdgeMesh";
    object      in_coolinggas.extendedFeatureEdgeMesh;
}
// * * * * * * * * * * * * * * * * * * * * * * * * * * * * * * * * * * * * * //

// points

64
(
(-0.00124211 0.00424879 -0.1)
(0 0.00412545 -0.1)
(0.00124211 0.00424879 -0.1)
(-0.00243575 0.00461385 -0.1)
(0.00243575 0.00461385 -0.1)
(-0.00353458 0.00520602 -0.1)
(0.00353458 0.00520602 -0.1)
(-0.00449629 0.00600177 -0.1)
(0 0.00254177 -0.1)
(-0.00155019 0.00269571 -0.1)
(0.00449629 0.00600177 -0.1)
(0.00155019 0.00269571 -0.1)
(-0.0052843 0.00696985 -0.1)
(-0.00303989 0.00315132 -0.1)
(0.0052843 0.00696985 -0.1)
(0.00303989 0.00315132 -0.1)
(-0.00586899 0.00807271 -0.1)
(-0.00441126 0.00389036 -0.1)
(0.00586899 0.00807271 -0.1)
(0.00441126 0.00389036 -0.1)
(-0.00622863 0.00926806 -0.1)
(-0.00561151 0.00488348 -0.1)
(0.00622863 0.00926806 -0.1)
(0.00561151 0.00488348 -0.1)
(-0.00635 0.0105104 -0.1)
(-0.00659497 0.00609168 -0.1)
(0.00635 0.0105104 -0.1)
(0.00659497 0.00609168 -0.1)
(-0.00622863 0.0117528 -0.1)
(-0.00732468 0.00746809 -0.1)
(0.00622863 0.0117528 -0.1)
(0.00732468 0.00746809 -0.1)
(-0.00586899 0.0129481 -0.1)
(-0.00777353 0.00895991 -0.1)
(0.00586899 0.0129481 -0.1)
(0.00777353 0.00895991 -0.1)
(-0.0052843 0.014051 -0.1)
(-0.007925 0.0105104 -0.1)
(0.0052843 0.014051 -0.1)
(0.007925 0.0105104 -0.1)
(-0.00449629 0.0150191 -0.1)
(-0.00777353 0.0120609 -0.1)
(0.00449629 0.0150191 -0.1)
(0.00777353 0.0120609 -0.1)
(-0.00353458 0.0158148 -0.1)
(-0.00732468 0.0135528 -0.1)
(0.00353458 0.0158148 -0.1)
(0.00732468 0.0135528 -0.1)
(-0.00243575 0.016407 -0.1)
(-0.00659497 0.0149292 -0.1)
(0.00243575 0.016407 -0.1)
(0.00659497 0.0149292 -0.1)
(-0.00124211 0.0167721 -0.1)
(-0.00561151 0.0161374 -0.1)
(0.00124211 0.0167721 -0.1)
(0.00561151 0.0161374 -0.1)
(0 0.0168954 -0.1)
(-0.00441126 0.0171305 -0.1)
(0.00441126 0.0171305 -0.1)
(-0.00303989 0.0178695 -0.1)
(0.00303989 0.0178695 -0.1)
(-0.00155019 0.0183251 -0.1)
(0.00155019 0.0183251 -0.1)
(0 0.0184791 -0.1)
)

// edges

64
(
(0 1)
(1 2)
(3 0)
(2 4)
(5 3)
(4 6)
(7 5)
(8 9)
(6 10)
(11 8)
(12 7)
(9 13)
(10 14)
(15 11)
(16 12)
(13 17)
(14 18)
(19 15)
(20 16)
(17 21)
(18 22)
(23 19)
(24 20)
(21 25)
(22 26)
(27 23)
(28 24)
(25 29)
(26 30)
(31 27)
(32 28)
(29 33)
(30 34)
(35 31)
(36 32)
(33 37)
(34 38)
(39 35)
(40 36)
(37 41)
(38 42)
(43 39)
(44 40)
(41 45)
(42 46)
(47 43)
(48 44)
(45 49)
(46 50)
(51 47)
(52 48)
(49 53)
(50 54)
(55 51)
(56 52)
(53 57)
(54 56)
(58 55)
(57 59)
(60 58)
(59 61)
(62 60)
(61 63)
(63 62)
)

// concaveStart mixedStart nonFeatureStart
0 0 0
// internalStart flatStart openStart multipleStart
0 0 0 64
// normals
64{(-0 0 -1)}
// normal volume types

64
(
0
0
0
0
0
0
0
0
0
0
0
0
0
0
0
0
0
0
0
0
0
0
0
0
0
0
0
0
0
0
0
0
0
0
0
0
0
0
0
0
0
0
0
0
0
0
0
0
0
0
0
0
0
0
0
0
0
0
0
0
0
0
0
0
)

// normalDirections

64
(
1(1)
1(1)
1(1)
1(1)
1(1)
1(1)
1(1)
1(1)
1(1)
1(1)
1(1)
1(1)
1(1)
1(1)
1(1)
1(1)
1(1)
1(1)
1(1)
1(1)
1(1)
1(1)
1(1)
1(1)
1(1)
1(1)
1(1)
1(1)
1(1)
1(1)
1(1)
1(1)
1(1)
1(1)
1(1)
1(1)
1(1)
1(1)
1(1)
1(1)
1(1)
1(1)
1(1)
1(1)
1(1)
1(1)
1(1)
1(1)
1(1)
1(1)
1(1)
1(1)
1(1)
1(1)
1(1)
1(1)
1(1)
1(1)
1(1)
1(1)
1(1)
1(1)
1(1)
1(1)
)

// edgeNormals

64
(
1(0)
1(1)
1(2)
1(3)
1(4)
1(5)
1(6)
1(7)
1(8)
1(9)
1(10)
1(11)
1(12)
1(13)
1(14)
1(15)
1(16)
1(17)
1(18)
1(19)
1(20)
1(21)
1(22)
1(23)
1(24)
1(25)
1(26)
1(27)
1(28)
1(29)
1(30)
1(31)
1(32)
1(33)
1(34)
1(35)
1(36)
1(37)
1(38)
1(39)
1(40)
1(41)
1(42)
1(43)
1(44)
1(45)
1(46)
1(47)
1(48)
1(49)
1(50)
1(51)
1(52)
1(53)
1(54)
1(55)
1(56)
1(57)
1(58)
1(59)
1(60)
1(61)
1(62)
1(63)
)

// featurePointNormals
0()
// featurePointEdges
0()
// regionEdges

64
(
0
1
2
3
4
5
6
7
8
9
10
11
12
13
14
15
16
17
18
19
20
21
22
23
24
25
26
27
28
29
30
31
32
33
34
35
36
37
38
39
40
41
42
43
44
45
46
47
48
49
50
51
52
53
54
55
56
57
58
59
60
61
62
63
)



// ************************************************************************* //
