/*--------------------------------*- C++ -*----------------------------------*\
  =========                 |
  \\      /  F ield         | OpenFOAM: The Open Source CFD Toolbox
   \\    /   O peration     | Website:  https://openfoam.org
    \\  /    A nd           | Version:  9
     \\/     M anipulation  |
\*---------------------------------------------------------------------------*/
FoamFile
{
    format      ascii;
    class       extendedFeatureEdgeMesh;
    location    "constant/extendedFeatureEdgeMesh";
    object      in_pci.extendedFeatureEdgeMesh;
}
// * * * * * * * * * * * * * * * * * * * * * * * * * * * * * * * * * * * * * //

// points

32
(
(0.00181775 -0.00436439 -0.000458716)
(0.000926679 -0.00463321 -0.00048697)
(0.00263896 -0.00392785 -0.000412833)
(0 -0.00472398 -0.00049651)
(0.00335876 -0.00334036 -0.000351086)
(-0.000926679 -0.00463321 -0.00048697)
(0.00394948 -0.0026245 -0.000275846)
(-0.00181775 -0.00436439 -0.000458716)
(0.00438843 -0.00180779 -0.000190006)
(-0.00263896 -0.00392785 -0.000412833)
(0.00465873 -0.000921603 -9.68643e-05)
(-0.00335876 -0.00334036 -0.000351086)
(0.00475 -8.67781e-19 -9.12074e-20)
(-0.00394948 -0.0026245 -0.000275846)
(0.00465873 0.000921603 9.68643e-05)
(-0.00438843 -0.00180779 -0.000190006)
(0.00438843 0.00180779 0.000190006)
(-0.00465873 -0.000921603 -9.68643e-05)
(0.00394948 0.0026245 0.000275846)
(-0.00475 2.8926e-19 3.04025e-20)
(0.00335876 0.00334036 0.000351086)
(-0.00465873 0.000921603 9.68643e-05)
(0 0.00472398 0.00049651)
(0.000926679 0.00463321 0.00048697)
(0.00181775 0.00436439 0.000458716)
(0.00263896 0.00392785 0.000412833)
(-0.00438843 0.00180779 0.000190006)
(-0.000926679 0.00463321 0.00048697)
(-0.00394948 0.0026245 0.000275846)
(-0.00335876 0.00334036 0.000351086)
(-0.00263896 0.00392785 0.000412833)
(-0.00181775 0.00436439 0.000458716)
)

// edges

32
(
(0 1)
(2 0)
(1 3)
(4 2)
(3 5)
(6 4)
(5 7)
(8 6)
(7 9)
(10 8)
(9 11)
(12 10)
(11 13)
(14 12)
(13 15)
(16 14)
(15 17)
(18 16)
(17 19)
(20 18)
(19 21)
(22 23)
(23 24)
(25 20)
(21 26)
(27 22)
(24 25)
(26 28)
(29 30)
(31 27)
(30 31)
(28 29)
)

// concaveStart mixedStart nonFeatureStart
0 0 0
// internalStart flatStart openStart multipleStart
0 0 0 32
// normals

32
(
(9.98514e-09 0.104528 -0.994522)
(-8.56215e-09 0.104528 -0.994522)
(-1.24359e-08 0.104528 -0.994522)
(1.40446e-08 0.104528 -0.994522)
(1.14153e-08 0.104528 -0.994522)
(3.53823e-08 0.104528 -0.994522)
(-6.07105e-09 0.104528 -0.994522)
(-9.49441e-10 0.104528 -0.994522)
(1.99304e-08 0.104528 -0.994522)
(-4.23201e-09 0.104528 -0.994522)
(-9.4749e-09 0.104528 -0.994522)
(-5.76756e-10 0.104528 -0.994522)
(-1.22184e-08 0.104528 -0.994522)
(-1.83312e-09 0.104528 -0.994522)
(1.16935e-08 0.104528 -0.994522)
(4.78475e-09 0.104528 -0.994522)
(-2.98487e-09 0.104528 -0.994522)
(-2.72764e-09 0.104528 -0.994522)
(-5.57092e-10 0.104528 -0.994522)
(-1.25593e-08 0.104528 -0.994522)
(-3.33404e-09 0.104528 -0.994522)
(1.14153e-08 0.104528 -0.994522)
(-1.06568e-08 0.104528 -0.994522)
(-1.04665e-09 0.104528 -0.994522)
(-1.77472e-09 0.104528 -0.994522)
(-1.24359e-08 0.104528 -0.994522)
(1.37214e-08 0.104528 -0.994522)
(2.47257e-08 0.104528 -0.994522)
(1.40446e-08 0.104528 -0.994522)
(9.98514e-09 0.104528 -0.994522)
(-8.56215e-09 0.104528 -0.994522)
(2.14799e-08 0.104528 -0.994522)
)

// normal volume types

32
(
0
0
0
0
0
0
0
0
0
0
0
0
0
0
0
0
0
0
0
0
0
0
0
0
0
0
0
0
0
0
0
0
)

// normalDirections

32
(
1(1)
1(1)
1(1)
1(1)
1(1)
1(1)
1(1)
1(1)
1(1)
1(1)
1(1)
1(1)
1(1)
1(1)
1(1)
1(1)
1(1)
1(1)
1(1)
1(1)
1(1)
1(1)
1(1)
1(1)
1(1)
1(1)
1(1)
1(1)
1(1)
1(1)
1(1)
1(1)
)

// edgeNormals

32
(
1(0)
1(1)
1(2)
1(3)
1(4)
1(5)
1(6)
1(7)
1(8)
1(9)
1(10)
1(11)
1(12)
1(13)
1(14)
1(15)
1(16)
1(17)
1(18)
1(19)
1(20)
1(21)
1(22)
1(23)
1(24)
1(25)
1(26)
1(27)
1(28)
1(29)
1(30)
1(31)
)

// featurePointNormals
0()
// featurePointEdges
0()
// regionEdges

32
(
0
1
2
3
4
5
6
7
8
9
10
11
12
13
14
15
16
17
18
19
20
21
22
23
24
25
26
27
28
29
30
31
)



// ************************************************************************* //
