/*--------------------------------*- C++ -*----------------------------------*\
  =========                 |
  \\      /  F ield         | OpenFOAM: The Open Source CFD Toolbox
   \\    /   O peration     | Website:  https://openfoam.org
    \\  /    A nd           | Version:  9
     \\/     M anipulation  |
\*---------------------------------------------------------------------------*/
FoamFile
{
    format      ascii;
    class       extendedFeatureEdgeMesh;
    location    "constant/extendedFeatureEdgeMesh";
    object      outlet.extendedFeatureEdgeMesh;
}
// * * * * * * * * * * * * * * * * * * * * * * * * * * * * * * * * * * * * * //

// points

94
(
(0.0216912 -0.027468 1.415)
(0.0234775 -0.0259578 1.415)
(0.0251588 -0.0243317 1.415)
(0.0198081 -0.0288555 1.415)
(0.0267278 -0.022597 1.415)
(0.0178366 -0.0301141 1.415)
(0.0281775 -0.0207613 1.415)
(0.0157854 -0.0312382 1.415)
(0.0295012 -0.0188329 1.415)
(0.0136636 -0.0322227 1.415)
(0.0306932 -0.0168204 1.415)
(0.0114809 -0.0330634 1.415)
(0.0317482 -0.0147327 1.415)
(0.00924684 -0.0337564 1.415)
(0.0326613 -0.0125793 1.415)
(0.00697151 -0.0342987 1.415)
(0.0334286 -0.0103696 1.415)
(0.00466504 -0.0346877 1.415)
(0.0340466 -0.00811371 1.415)
(0.00233774 -0.0349218 1.415)
(0.0345125 -0.00582153 1.415)
(0 -0.035 1.415)
(0.0348242 -0.00350335 1.415)
(-0.00233774 -0.0349218 1.415)
(0.0349805 -0.00116952 1.415)
(-0.00466504 -0.0346877 1.415)
(0.0349805 0.00116952 1.415)
(-0.00697151 -0.0342987 1.415)
(0.0348242 0.00350335 1.415)
(-0.00924684 -0.0337564 1.415)
(0.0345125 0.00582153 1.415)
(-0.0114809 -0.0330634 1.415)
(0.0340466 0.00811371 1.415)
(-0.0136636 -0.0322227 1.415)
(0.0334286 0.0103696 1.415)
(-0.0157854 -0.0312382 1.415)
(0.0326613 0.0125793 1.415)
(-0.0178366 -0.0301141 1.415)
(0.0317482 0.0147327 1.415)
(-0.0198081 -0.0288555 1.415)
(0.0306932 0.0168204 1.415)
(-0.0216912 -0.027468 1.415)
(0.0295012 0.0188329 1.415)
(-0.0234775 -0.0259578 1.415)
(0.0281775 0.0207613 1.415)
(-0.0251588 -0.0243317 1.415)
(0.0267278 0.022597 1.415)
(-0.0267278 -0.022597 1.415)
(0.0251588 0.0243317 1.415)
(-0.0281775 -0.0207613 1.415)
(0.0234775 0.0259578 1.415)
(-0.0295012 -0.0188329 1.415)
(0.0216912 0.027468 1.415)
(-0.0306932 -0.0168204 1.415)
(0.0198081 0.0288555 1.415)
(-0.0317482 -0.0147327 1.415)
(0.0178366 0.0301141 1.415)
(-0.0326613 -0.0125793 1.415)
(0.0157854 0.0312382 1.415)
(-0.0334286 -0.0103696 1.415)
(0.0136636 0.0322227 1.415)
(-0.0340466 -0.00811371 1.415)
(0.0114809 0.0330634 1.415)
(-0.0345125 -0.00582153 1.415)
(0.00924684 0.0337564 1.415)
(-0.0348242 -0.00350335 1.415)
(0.00697151 0.0342987 1.415)
(-0.0349805 -0.00116952 1.415)
(0.00466504 0.0346877 1.415)
(-0.0349805 0.00116952 1.415)
(-0.0348242 0.00350335 1.415)
(-0.0345125 0.00582153 1.415)
(0.00233774 0.0349218 1.415)
(-0.0340466 0.00811371 1.415)
(0 0.035 1.415)
(-0.0334286 0.0103696 1.415)
(-0.00233774 0.0349218 1.415)
(-0.0326613 0.0125793 1.415)
(-0.00466504 0.0346877 1.415)
(-0.0317482 0.0147327 1.415)
(-0.00697151 0.0342987 1.415)
(-0.0306932 0.0168204 1.415)
(-0.00924684 0.0337564 1.415)
(-0.0295012 0.0188329 1.415)
(-0.0114809 0.0330634 1.415)
(-0.0136636 0.0322227 1.415)
(-0.0157854 0.0312382 1.415)
(-0.0198081 0.0288555 1.415)
(-0.0216912 0.027468 1.415)
(-0.0281775 0.0207613 1.415)
(-0.0178366 0.0301141 1.415)
(-0.0234775 0.0259578 1.415)
(-0.0267278 0.022597 1.415)
(-0.0251588 0.0243317 1.415)
)

// edges

94
(
(0 1)
(1 2)
(3 0)
(2 4)
(5 3)
(4 6)
(7 5)
(6 8)
(9 7)
(8 10)
(11 9)
(10 12)
(13 11)
(12 14)
(15 13)
(14 16)
(17 15)
(16 18)
(19 17)
(18 20)
(21 19)
(20 22)
(23 21)
(22 24)
(25 23)
(24 26)
(27 25)
(26 28)
(29 27)
(28 30)
(31 29)
(30 32)
(33 31)
(32 34)
(35 33)
(34 36)
(37 35)
(36 38)
(39 37)
(38 40)
(41 39)
(40 42)
(43 41)
(42 44)
(45 43)
(44 46)
(47 45)
(46 48)
(49 47)
(48 50)
(51 49)
(50 52)
(53 51)
(52 54)
(55 53)
(54 56)
(57 55)
(56 58)
(59 57)
(58 60)
(61 59)
(60 62)
(63 61)
(62 64)
(65 63)
(64 66)
(67 65)
(66 68)
(69 67)
(70 69)
(71 70)
(68 72)
(73 71)
(72 74)
(75 73)
(74 76)
(77 75)
(76 78)
(79 77)
(78 80)
(81 79)
(80 82)
(83 81)
(82 84)
(85 86)
(87 88)
(89 83)
(84 85)
(86 90)
(90 87)
(88 91)
(92 89)
(91 93)
(93 92)
)

// concaveStart mixedStart nonFeatureStart
0 0 0
// internalStart flatStart openStart multipleStart
0 0 0 94
// normals
94{(0 0 1)}
// normal volume types

94
(
0
0
0
0
0
0
0
0
0
0
0
0
0
0
0
0
0
0
0
0
0
0
0
0
0
0
0
0
0
0
0
0
0
0
0
0
0
0
0
0
0
0
0
0
0
0
0
0
0
0
0
0
0
0
0
0
0
0
0
0
0
0
0
0
0
0
0
0
0
0
0
0
0
0
0
0
0
0
0
0
0
0
0
0
0
0
0
0
0
0
0
0
0
0
)

// normalDirections

94
(
1(1)
1(1)
1(1)
1(1)
1(1)
1(1)
1(1)
1(1)
1(1)
1(1)
1(1)
1(1)
1(1)
1(1)
1(1)
1(1)
1(1)
1(1)
1(1)
1(1)
1(1)
1(1)
1(1)
1(1)
1(1)
1(1)
1(1)
1(1)
1(1)
1(1)
1(1)
1(1)
1(1)
1(1)
1(1)
1(1)
1(1)
1(1)
1(1)
1(1)
1(1)
1(1)
1(1)
1(1)
1(1)
1(1)
1(1)
1(1)
1(1)
1(1)
1(1)
1(1)
1(1)
1(1)
1(1)
1(1)
1(1)
1(1)
1(1)
1(1)
1(1)
1(1)
1(1)
1(1)
1(1)
1(1)
1(1)
1(1)
1(1)
1(1)
1(1)
1(1)
1(1)
1(1)
1(1)
1(1)
1(1)
1(1)
1(1)
1(1)
1(1)
1(1)
1(1)
1(1)
1(1)
1(1)
1(1)
1(1)
1(1)
1(1)
1(1)
1(1)
1(1)
1(1)
)

// edgeNormals

94
(
1(0)
1(1)
1(2)
1(3)
1(4)
1(5)
1(6)
1(7)
1(8)
1(9)
1(10)
1(11)
1(12)
1(13)
1(14)
1(15)
1(16)
1(17)
1(18)
1(19)
1(20)
1(21)
1(22)
1(23)
1(24)
1(25)
1(26)
1(27)
1(28)
1(29)
1(30)
1(31)
1(32)
1(33)
1(34)
1(35)
1(36)
1(37)
1(38)
1(39)
1(40)
1(41)
1(42)
1(43)
1(44)
1(45)
1(46)
1(47)
1(48)
1(49)
1(50)
1(51)
1(52)
1(53)
1(54)
1(55)
1(56)
1(57)
1(58)
1(59)
1(60)
1(61)
1(62)
1(63)
1(64)
1(65)
1(66)
1(67)
1(68)
1(69)
1(70)
1(71)
1(72)
1(73)
1(74)
1(75)
1(76)
1(77)
1(78)
1(79)
1(80)
1(81)
1(82)
1(83)
1(84)
1(85)
1(86)
1(87)
1(88)
1(89)
1(90)
1(91)
1(92)
1(93)
)

// featurePointNormals
0()
// featurePointEdges
0()
// regionEdges

94
(
0
1
2
3
4
5
6
7
8
9
10
11
12
13
14
15
16
17
18
19
20
21
22
23
24
25
26
27
28
29
30
31
32
33
34
35
36
37
38
39
40
41
42
43
44
45
46
47
48
49
50
51
52
53
54
55
56
57
58
59
60
61
62
63
64
65
66
67
68
69
70
71
72
73
74
75
76
77
78
79
80
81
82
83
84
85
86
87
88
89
90
91
92
93
)



// ************************************************************************* //
