/*--------------------------------*- C++ -*----------------------------------*\
  =========                 |
  \\      /  F ield         | OpenFOAM: The Open Source CFD Toolbox
   \\    /   O peration     | Website:  https://openfoam.org
    \\  /    A nd           | Version:  9
     \\/     M anipulation  |
\*---------------------------------------------------------------------------*/
FoamFile
{
    format      ascii;
    class       extendedFeatureEdgeMesh;
    location    "constant/extendedFeatureEdgeMesh";
    object      w_lance.extendedFeatureEdgeMesh;
}
// * * * * * * * * * * * * * * * * * * * * * * * * * * * * * * * * * * * * * //

// points

160
(
(0.00154609 -0.00773014 -0.000812471)
(0.00303277 -0.00728164 -0.000765331)
(0.00440289 -0.0065533 -0.00068878)
(0 -0.00788159 -0.000828388)
(0.00560382 -0.00557312 -0.000585759)
(-0.00154609 -0.00773014 -0.000812471)
(0.0065894 -0.00437877 -0.000460228)
(-0.00303277 -0.00728164 -0.000765331)
(0.00732175 -0.00301615 -0.00031701)
(-0.00440289 -0.0065533 -0.00068878)
(0.00777272 -0.00153762 -0.000161611)
(-0.00560382 -0.00557312 -0.000585759)
(0.00243004 -0.0058345 -0.00061323)
(0.00123882 -0.00619387 -0.000651002)
(0.007925 -1.44782e-18 -1.52172e-19)
(0.00352787 -0.00525091 -0.000551893)
(-0.0065894 -0.00437877 -0.000460228)
(0 -0.00631521 -0.000663756)
(0.00777272 0.00153762 0.000161611)
(0.00449013 -0.00446553 -0.000469346)
(-0.00123882 -0.00619387 -0.000651002)
(-0.00732175 -0.00301615 -0.00031701)
(0.000926679 -0.00463321 -0.00048697)
(0.00181775 -0.00436439 -0.000458716)
(0.00732175 0.00301615 0.00031701)
(0.00527983 -0.00350854 -0.000368763)
(0.00263896 -0.00392785 -0.000412833)
(-0.00243004 -0.0058345 -0.00061323)
(-0.00777272 -0.00153762 -0.000161611)
(0 -0.00472398 -0.00049651)
(0.0065894 0.00437877 0.000460228)
(0.00586664 -0.00241673 -0.000254008)
(0.00335876 -0.00334036 -0.000351086)
(-0.000926679 -0.00463321 -0.00048697)
(-0.00352787 -0.00525091 -0.000551893)
(-0.007925 4.82608e-19 5.07241e-20)
(0.00560382 0.00557312 0.000585759)
(0.00622799 -0.00123204 -0.000129492)
(0.00394948 -0.0026245 -0.000275846)
(-0.00181775 -0.00436439 -0.000458716)
(-0.00449013 -0.00446553 -0.000469346)
(-0.00777272 0.00153762 0.000161611)
(0.00440289 0.0065533 0.00068878)
(0.00635 -1.16009e-18 -1.2193e-19)
(0.00438843 -0.00180779 -0.000190006)
(-0.00263896 -0.00392785 -0.000412833)
(-0.00527983 -0.00350854 -0.000368763)
(-0.00732175 0.00301615 0.00031701)
(0.00303277 0.00728164 0.000765331)
(0.00622799 0.00123204 0.000129492)
(0.00465873 -0.000921603 -9.68643e-05)
(-0.00335876 -0.00334036 -0.000351086)
(-0.00586664 -0.00241673 -0.000254008)
(-0.0065894 0.00437877 0.000460228)
(0.00154609 0.00773014 0.000812471)
(0.00586664 0.00241673 0.000254008)
(0.00475 -8.67781e-19 -9.12074e-20)
(-0.00394948 -0.0026245 -0.000275846)
(-0.00622799 -0.00123204 -0.000129492)
(-0.00560382 0.00557312 0.000585759)
(0 0.00788159 0.000828388)
(0.00527983 0.00350854 0.000368763)
(0.00465873 0.000921603 9.68643e-05)
(-0.00438843 -0.00180779 -0.000190006)
(-0.00635 3.86695e-19 4.06433e-20)
(-0.00440289 0.0065533 0.00068878)
(-0.00154609 0.00773014 0.000812471)
(0.00449013 0.00446553 0.000469346)
(0.00438843 0.00180779 0.000190006)
(-0.00465873 -0.000921603 -9.68643e-05)
(-0.00622799 0.00123204 0.000129492)
(-0.00303277 0.00728164 0.000765331)
(0.00352787 0.00525091 0.000551893)
(0.00394948 0.0026245 0.000275846)
(-0.00475 2.8926e-19 3.04025e-20)
(-0.00586664 0.00241673 0.000254008)
(0.00243004 0.0058345 0.00061323)
(0.00335876 0.00334036 0.000351086)
(-0.00465873 0.000921603 9.68643e-05)
(-0.00527983 0.00350854 0.000368763)
(0.00123882 0.00619387 0.000651002)
(0.00263896 0.00392785 0.000412833)
(-0.00438843 0.00180779 0.000190006)
(-0.00449013 0.00446553 0.000469346)
(0 0.00631521 0.000663756)
(0.00181775 0.00436439 0.000458716)
(-0.00394948 0.0026245 0.000275846)
(-0.00352787 0.00525091 0.000551893)
(0.000926679 0.00463321 0.00048697)
(0 0.00472398 0.00049651)
(-0.00123882 0.00619387 0.000651002)
(-0.000926679 0.00463321 0.00048697)
(-0.00335876 0.00334036 0.000351086)
(-0.00243004 0.0058345 0.00061323)
(-0.00263896 0.00392785 0.000412833)
(-0.00181775 0.00436439 0.000458716)
(0.00365362 0.00166557 -0.1)
(0.00186316 0.00111797 -0.1)
(0.00530186 0.00255382 -0.1)
(0 0.000932957 -0.1)
(0.00674444 0.00374744 -0.1)
(-0.00186316 0.00111797 -0.1)
(0.00792645 0.00519956 -0.1)
(-0.00365362 0.00166557 -0.1)
(0.00880348 0.00685386 -0.1)
(-0.00530186 0.00255382 -0.1)
(0.00934295 0.00864687 -0.1)
(-0.00674444 0.00374744 -0.1)
(0.009525 0.0105104 -0.1)
(-0.00792645 0.00519956 -0.1)
(0.00934295 0.012374 -0.1)
(-0.00880348 0.00685386 -0.1)
(0.00880348 0.014167 -0.1)
(-0.00934295 0.00864687 -0.1)
(0.00792645 0.0158213 -0.1)
(-0.009525 0.0105104 -0.1)
(0.00674444 0.0172734 -0.1)
(-0.00934295 0.012374 -0.1)
(0.00530186 0.018467 -0.1)
(-0.00880348 0.014167 -0.1)
(0.00365362 0.0193553 -0.1)
(-0.00792645 0.0158213 -0.1)
(0.00186316 0.0199029 -0.1)
(-0.00674444 0.0172734 -0.1)
(0 0.0200879 -0.1)
(-0.00530186 0.018467 -0.1)
(-0.00186316 0.0199029 -0.1)
(-0.00365362 0.0193553 -0.1)
(0.00185824 -0.0092908 -0.000976503)
(0.00364506 -0.00875175 -0.000919846)
(0.00529181 -0.00787636 -0.000827839)
(0 -0.00947282 -0.000995634)
(0.00673519 -0.0066983 -0.000704019)
(-0.00185824 -0.0092908 -0.000976503)
(0.00791975 -0.00526282 -0.000553144)
(-0.00364506 -0.00875175 -0.000919846)
(0.00879995 -0.00362509 -0.000381012)
(-0.00529181 -0.00787636 -0.000827839)
(0.00934198 -0.00184806 -0.000194238)
(-0.00673519 -0.0066983 -0.000704019)
(0.009525 5.80043e-19 6.0965e-20)
(-0.00791975 -0.00526282 -0.000553144)
(0.00934198 0.00184806 0.000194238)
(-0.00879995 -0.00362509 -0.000381012)
(0.00879995 0.00362509 0.000381012)
(-0.00934198 -0.00184806 -0.000194238)
(0.00791975 0.00526282 0.000553144)
(-0.009525 -1.74013e-18 -1.82895e-19)
(0.00673519 0.0066983 0.000704019)
(-0.00934198 0.00184806 0.000194238)
(0.00529181 0.00787636 0.000827839)
(-0.00879995 0.00362509 0.000381012)
(0.00364506 0.00875175 0.000919846)
(-0.00791975 0.00526282 0.000553144)
(0.00185824 0.0092908 0.000976503)
(-0.00673519 0.0066983 0.000704019)
(0 0.00947282 0.000995634)
(-0.00529181 0.00787636 0.000827839)
(-0.00185824 0.0092908 0.000976503)
(-0.00364506 0.00875175 0.000919846)
)

// edges

160
(
(128 129)
(129 130)
(131 128)
(130 132)
(133 131)
(132 134)
(135 133)
(134 136)
(137 135)
(136 138)
(139 137)
(138 140)
(141 139)
(140 142)
(143 141)
(142 144)
(145 143)
(144 146)
(147 145)
(146 148)
(149 147)
(148 150)
(151 149)
(150 152)
(153 151)
(152 154)
(155 153)
(154 156)
(157 155)
(156 158)
(159 157)
(158 159)
(0 1)
(1 2)
(3 0)
(2 4)
(5 3)
(4 6)
(7 5)
(6 8)
(9 7)
(8 10)
(11 9)
(12 13)
(10 14)
(15 12)
(16 11)
(13 17)
(14 18)
(19 15)
(17 20)
(21 16)
(22 23)
(18 24)
(25 19)
(23 26)
(20 27)
(28 21)
(29 22)
(24 30)
(31 25)
(26 32)
(33 29)
(27 34)
(35 28)
(30 36)
(37 31)
(32 38)
(39 33)
(34 40)
(41 35)
(36 42)
(43 37)
(38 44)
(45 39)
(40 46)
(47 41)
(42 48)
(49 43)
(44 50)
(51 45)
(46 52)
(53 47)
(48 54)
(55 49)
(50 56)
(57 51)
(52 58)
(59 53)
(54 60)
(61 55)
(56 62)
(63 57)
(58 64)
(65 59)
(60 66)
(67 61)
(62 68)
(69 63)
(64 70)
(71 65)
(66 71)
(72 67)
(68 73)
(74 69)
(70 75)
(76 72)
(73 77)
(78 74)
(75 79)
(80 76)
(77 81)
(82 78)
(79 83)
(84 80)
(81 85)
(86 82)
(83 87)
(88 89)
(85 88)
(90 84)
(89 91)
(92 86)
(87 93)
(93 90)
(94 92)
(91 95)
(95 94)
(96 97)
(98 96)
(97 99)
(100 98)
(99 101)
(102 100)
(101 103)
(104 102)
(103 105)
(106 104)
(105 107)
(108 106)
(107 109)
(110 108)
(109 111)
(112 110)
(111 113)
(114 112)
(113 115)
(116 114)
(115 117)
(118 116)
(117 119)
(120 118)
(119 121)
(122 120)
(121 123)
(124 122)
(123 125)
(126 124)
(125 127)
(127 126)
)

// concaveStart mixedStart nonFeatureStart
0 0 0
// internalStart flatStart openStart multipleStart
0 32 32 160
// normals

192
(
(-1.88585e-08 0.104529 -0.994522)
(7.04007e-08 0.104528 -0.994522)
(-3.60204e-08 0.104529 -0.994522)
(-5.40384e-09 0.104528 -0.994522)
(3.60204e-08 0.104529 -0.994522)
(7.28399e-08 0.104528 -0.994522)
(-3.42025e-08 0.104528 -0.994522)
(-3.44874e-08 0.104528 -0.994522)
(-9.00686e-09 0.104528 -0.994522)
(-3.35672e-08 0.104528 -0.994522)
(-4.21874e-08 0.104528 -0.994522)
(7.14604e-09 0.104529 -0.994522)
(2.39503e-08 0.104528 -0.994522)
(-2.10899e-08 0.104528 -0.994522)
(1.45183e-08 0.104529 -0.994522)
(-1.36949e-08 0.104528 -0.994522)
(-1.3702e-22 0.104528 -0.994522)
(-7.25311e-11 0.104528 -0.994522)
(1.04946e-08 0.104528 -0.994522)
(3.0815e-08 0.104528 -0.994522)
(1.1364e-08 0.104528 -0.994522)
(-2.08326e-08 0.104528 -0.994522)
(9.40788e-09 0.104528 -0.994522)
(-5.50111e-08 0.104529 -0.994522)
(-4.0911e-08 0.104528 -0.994522)
(-2.08326e-08 0.104528 -0.994522)
(-1.59075e-08 0.104528 -0.994522)
(3.0815e-08 0.104528 -0.994522)
(9.43241e-09 0.104528 -0.994522)
(3.85172e-08 0.104528 -0.994522)
(1.01876e-08 0.104528 -0.994522)
(5.76851e-08 0.104529 -0.994522)
(1.10766e-23 0.104528 -0.994522)
(1.45183e-08 0.104529 -0.994522)
(-2.66049e-08 0.104528 -0.994522)
(-6.82161e-09 0.104528 -0.994522)
(2.06866e-08 0.104529 -0.994522)
(-1.33141e-08 0.104528 -0.994522)
(2.39503e-08 0.104528 -0.994522)
(-4.21874e-08 0.104528 -0.994522)
(4.00629e-17 0.104528 -0.994522)
(-2.53865e-09 0.104528 -0.994522)
(-7.02348e-09 0.104528 -0.994522)
(1.27115e-08 0.104528 -0.994522)
(-3.35672e-08 0.104528 -0.994522)
(-9.00686e-09 0.104528 -0.994522)
(2.49485e-08 0.104528 -0.994522)
(1.96618e-08 0.104528 -0.994522)
(8.06021e-09 0.104528 -0.994522)
(-5.67333e-09 0.104528 -0.994522)
(-3.44874e-08 0.104528 -0.994522)
(-3.42025e-08 0.104528 -0.994522)
(-1.1478e-08 0.104528 -0.994522)
(9.67885e-09 0.104528 -0.994522)
(-1.40356e-08 0.104528 -0.994522)
(-1.1478e-08 0.104528 -0.994522)
(7.28399e-08 0.104528 -0.994522)
(3.60204e-08 0.104529 -0.994522)
(-5.67333e-09 0.104528 -0.994522)
(4.57798e-24 0.104528 -0.994522)
(-7.60337e-09 0.104528 -0.994522)
(2.49485e-08 0.104528 -0.994522)
(-5.40384e-09 0.104528 -0.994522)
(-3.30814e-08 0.104528 -0.994522)
(1.27115e-08 0.104528 -0.994522)
(-1.04357e-08 0.104528 -0.994522)
(-1.04357e-08 0.104528 -0.994522)
(4.00629e-17 0.104528 -0.994522)
(7.04007e-08 0.104528 -0.994522)
(3.42025e-08 0.104528 -0.994522)
(-1.33141e-08 0.104528 -0.994522)
(-7.60337e-09 0.104528 -0.994522)
(4.62425e-24 0.104528 -0.994522)
(-2.66049e-08 0.104528 -0.994522)
(5.76851e-08 0.104529 -0.994522)
(-1.40356e-08 0.104528 -0.994522)
(9.67885e-09 0.104528 -0.994522)
(9.43241e-09 0.104528 -0.994522)
(-4.0911e-08 0.104528 -0.994522)
(8.06021e-09 0.104528 -0.994522)
(1.96618e-08 0.104528 -0.994522)
(9.40788e-09 0.104528 -0.994522)
(1.04946e-08 0.104528 -0.994522)
(-7.02348e-09 0.104528 -0.994522)
(-2.53865e-09 0.104528 -0.994522)
(-7.25311e-11 0.104528 -0.994522)
(1.01876e-08 0.104528 -0.994522)
(2.06866e-08 0.104529 -0.994522)
(-1.36949e-08 0.104528 -0.994522)
(-1.59075e-08 0.104528 -0.994522)
(-6.82161e-09 0.104528 -0.994522)
(-2.10899e-08 0.104528 -0.994522)
(4.0911e-08 0.104528 -0.994522)
(3.85172e-08 0.104528 -0.994522)
(-2.06866e-08 0.104529 -0.994522)
(-5.50111e-08 0.104529 -0.994522)
(-0.291002 0.951481 0.10001)
(-0.472377 0.876546 0.0923421)
(-0.0982815 0.989728 0.103825)
(-0.635413 0.76794 0.0807376)
(0.0982815 0.989728 0.103825)
(-0.773857 0.62991 0.0660145)
(0.291002 0.951481 0.10001)
(-0.882447 0.467834 0.0491763)
(0.472377 0.876546 0.0923421)
(-0.957151 0.287982 0.0304732)
(0.635413 0.76794 0.0807376)
(-0.99521 0.0972212 0.0102184)
(0.773857 0.62991 0.0660145)
(-0.995208 -0.0972209 -0.010423)
(0.882447 0.467834 0.0491763)
(-0.957157 -0.287984 -0.0302734)
(0.957151 0.287982 0.0304732)
(-0.882456 -0.467838 -0.0489829)
(0.99521 0.0972212 0.0102184)
(-0.773846 -0.629902 -0.0662283)
(0.995208 -0.0972209 -0.010423)
(-0.635404 -0.767928 -0.0809229)
(0.957157 -0.287984 -0.0302734)
(-0.472386 -0.876563 -0.0921353)
(0.882456 -0.467838 -0.0489829)
(-0.291009 -0.9515 -0.0998123)
(0.773846 -0.629902 -0.0662283)
(-0.0982795 -0.989707 -0.104023)
(0.635404 -0.767928 -0.0809229)
(0.0982795 -0.989707 -0.104023)
(0.472386 -0.876563 -0.0921353)
(0.291003 -0.951482 -0.0999993)
(-0.290285 0.95172 0.099822)
(-7.11417e-09 0.104528 -0.994522)
(-0.471397 0.877091 0.0921766)
(2.38856e-08 0.104528 -0.994522)
(-0.0980172 0.989733 0.104025)
(1.40757e-08 0.104529 -0.994522)
(-0.634393 0.768756 0.0809906)
(-1.10866e-08 0.104528 -0.994522)
(0.0980172 0.989733 0.104025)
(-1.40757e-08 0.104529 -0.994522)
(-0.77301 0.630919 0.0662996)
(1.74949e-08 0.104528 -0.994522)
(0.290285 0.95172 0.099822)
(2.48843e-09 0.104528 -0.994522)
(-0.881921 0.468836 0.0490634)
(1.95934e-08 0.104528 -0.994522)
(0.471397 0.877091 0.0921766)
(-2.64266e-08 0.104528 -0.994522)
(-0.95694 0.288695 0.0303339)
(-4.38938e-09 0.104528 -0.994522)
(0.634393 0.768756 0.0809906)
(-1.13758e-08 0.104528 -0.994522)
(-0.995185 0.09746 0.01044)
(-5.34172e-17 0.104528 -0.994522)
(0.77301 0.630919 0.0662996)
(1.09585e-08 0.104528 -0.994522)
(-0.995185 -0.0974805 -0.0102456)
(4.16945e-09 0.104528 -0.994522)
(0.881921 0.468836 0.0490634)
(-1.69665e-08 0.104528 -0.994522)
(-0.95694 -0.288674 -0.0305365)
(-2.03256e-08 0.104528 -0.994522)
(0.95694 0.288695 0.0303339)
(-2.03256e-08 0.104528 -0.994522)
(-0.881921 -0.468815 -0.0492654)
(-1.69665e-08 0.104528 -0.994522)
(0.995185 0.09746 0.01044)
(4.16945e-09 0.104528 -0.994522)
(-0.77301 -0.63094 -0.0661021)
(1.09585e-08 0.104528 -0.994522)
(0.995185 -0.0974805 -0.0102456)
(3.81934e-23 0.104528 -0.994522)
(-0.634393 -0.768777 -0.0807893)
(-1.13758e-08 0.104528 -0.994522)
(0.95694 -0.288674 -0.0305365)
(-4.38938e-09 0.104528 -0.994522)
(-0.471397 -0.877071 -0.0923713)
(-2.64266e-08 0.104528 -0.994522)
(0.881921 -0.468815 -0.0492654)
(1.95934e-08 0.104528 -0.994522)
(-0.290285 -0.951699 -0.100019)
(2.48843e-09 0.104528 -0.994522)
(0.77301 -0.63094 -0.0661021)
(1.74949e-08 0.104528 -0.994522)
(-0.0980172 -0.989754 -0.103823)
(-1.40757e-08 0.104529 -0.994522)
(0.634393 -0.768777 -0.0807893)
(-1.10866e-08 0.104528 -0.994522)
(0.0980172 -0.989754 -0.103823)
(2.97045e-08 0.104528 -0.994522)
(0.471397 -0.877071 -0.0923713)
(2.38856e-08 0.104528 -0.994522)
(0.290285 -0.951677 -0.100229)
(-2.48843e-09 0.104528 -0.994522)
)

// normal volume types

192
(
0
0
0
0
0
0
0
0
0
0
0
0
0
0
0
0
0
0
0
0
0
0
0
0
0
0
0
0
0
0
0
0
0
0
0
0
0
0
0
0
0
0
0
0
0
0
0
0
0
0
0
0
0
0
0
0
0
0
0
0
0
0
0
0
0
0
0
0
0
0
0
0
0
0
0
0
0
0
0
0
0
0
0
0
0
0
0
0
0
0
0
0
0
0
0
0
0
0
0
0
0
0
0
0
0
0
0
0
0
0
0
0
0
0
0
0
0
0
0
0
0
0
0
0
0
0
0
0
0
0
0
0
0
0
0
0
0
0
0
0
0
0
0
0
0
0
0
0
0
0
0
0
0
0
0
0
0
0
0
0
0
0
0
0
0
0
0
0
0
0
0
0
0
0
0
0
0
0
0
0
0
0
0
0
0
0
0
0
0
0
0
0
)

// normalDirections

160
(
2(1 -1)
2(1 -1)
2(1 -1)
2(1 -1)
2(1 -1)
2(1 -1)
2(1 -1)
2(1 -1)
2(1 -1)
2(1 -1)
2(1 -1)
2(1 -1)
2(1 -1)
2(1 -1)
2(1 -1)
2(1 -1)
2(1 -1)
2(1 -1)
2(1 -1)
2(1 -1)
2(1 -1)
2(1 -1)
2(1 -1)
2(1 -1)
2(1 -1)
2(1 -1)
2(1 -1)
2(1 -1)
2(1 -1)
2(1 -1)
2(1 -1)
2(1 -1)
1(1)
1(1)
1(1)
1(1)
1(1)
1(1)
1(1)
1(1)
1(1)
1(1)
1(1)
1(1)
1(1)
1(1)
1(1)
1(1)
1(1)
1(1)
1(1)
1(1)
1(1)
1(1)
1(1)
1(1)
1(1)
1(1)
1(1)
1(1)
1(1)
1(1)
1(1)
1(1)
1(1)
1(1)
1(1)
1(1)
1(1)
1(1)
1(1)
1(1)
1(1)
1(1)
1(1)
1(1)
1(1)
1(1)
1(1)
1(1)
1(1)
1(1)
1(1)
1(1)
1(1)
1(1)
1(1)
1(1)
1(1)
1(1)
1(1)
1(1)
1(1)
1(1)
1(1)
1(1)
1(1)
1(1)
1(1)
1(1)
1(1)
1(1)
1(1)
1(1)
1(1)
1(1)
1(1)
1(1)
1(1)
1(1)
1(1)
1(1)
1(1)
1(1)
1(1)
1(1)
1(1)
1(1)
1(1)
1(1)
1(1)
1(1)
1(1)
1(1)
1(1)
1(1)
1(1)
1(1)
1(1)
1(1)
1(1)
1(1)
1(1)
1(1)
1(1)
1(1)
1(1)
1(1)
1(1)
1(1)
1(1)
1(1)
1(1)
1(1)
1(1)
1(1)
1(1)
1(1)
1(1)
1(1)
1(1)
1(1)
1(1)
1(1)
1(1)
1(1)
1(1)
1(1)
1(1)
1(1)
)

// edgeNormals

160
(
2(128 129)
2(130 131)
2(132 133)
2(134 135)
2(136 137)
2(138 139)
2(140 141)
2(142 143)
2(144 145)
2(146 147)
2(148 149)
2(150 151)
2(152 153)
2(154 155)
2(156 157)
2(158 159)
2(160 161)
2(162 163)
2(164 165)
2(166 167)
2(168 169)
2(170 171)
2(172 173)
2(174 175)
2(176 177)
2(178 179)
2(180 181)
2(182 183)
2(184 185)
2(186 187)
2(188 189)
2(190 191)
1(0)
1(1)
1(2)
1(3)
1(4)
1(5)
1(6)
1(7)
1(8)
1(9)
1(10)
1(11)
1(12)
1(13)
1(14)
1(15)
1(16)
1(17)
1(18)
1(19)
1(20)
1(21)
1(22)
1(23)
1(24)
1(25)
1(26)
1(27)
1(28)
1(29)
1(30)
1(31)
1(32)
1(33)
1(34)
1(35)
1(36)
1(37)
1(38)
1(39)
1(40)
1(41)
1(42)
1(43)
1(44)
1(45)
1(46)
1(47)
1(48)
1(49)
1(50)
1(51)
1(52)
1(53)
1(54)
1(55)
1(56)
1(57)
1(58)
1(59)
1(60)
1(61)
1(62)
1(63)
1(64)
1(65)
1(66)
1(67)
1(68)
1(69)
1(70)
1(71)
1(72)
1(73)
1(74)
1(75)
1(76)
1(77)
1(78)
1(79)
1(80)
1(81)
1(82)
1(83)
1(84)
1(85)
1(86)
1(87)
1(88)
1(89)
1(90)
1(91)
1(92)
1(93)
1(94)
1(95)
1(96)
1(97)
1(98)
1(99)
1(100)
1(101)
1(102)
1(103)
1(104)
1(105)
1(106)
1(107)
1(108)
1(109)
1(110)
1(111)
1(112)
1(113)
1(114)
1(115)
1(116)
1(117)
1(118)
1(119)
1(120)
1(121)
1(122)
1(123)
1(124)
1(125)
1(126)
1(127)
)

// featurePointNormals
0()
// featurePointEdges
0()
// regionEdges

128
(
32
33
34
35
36
37
38
39
40
41
42
43
44
45
46
47
48
49
50
51
52
53
54
55
56
57
58
59
60
61
62
63
64
65
66
67
68
69
70
71
72
73
74
75
76
77
78
79
80
81
82
83
84
85
86
87
88
89
90
91
92
93
94
95
96
97
98
99
100
101
102
103
104
105
106
107
108
109
110
111
112
113
114
115
116
117
118
119
120
121
122
123
124
125
126
127
128
129
130
131
132
133
134
135
136
137
138
139
140
141
142
143
144
145
146
147
148
149
150
151
152
153
154
155
156
157
158
159
)



// ************************************************************************* //
