/*--------------------------------*- C++ -*----------------------------------*\
  =========                 |
  \\      /  F ield         | OpenFOAM: The Open Source CFD Toolbox
   \\    /   O peration     | Website:  https://openfoam.org
    \\  /    A nd           | Version:  9
     \\/     M anipulation  |
\*---------------------------------------------------------------------------*/
FoamFile
{
    format      ascii;
    class       extendedFeatureEdgeMesh;
    location    "constant/extendedFeatureEdgeMesh";
    object      w_lance_2.extendedFeatureEdgeMesh;
}
// * * * * * * * * * * * * * * * * * * * * * * * * * * * * * * * * * * * * * //

// points

64
(
(0 0.00412545 -0.1)
(-0.00124211 0.00424879 -0.1)
(0.00124211 0.00424879 -0.1)
(-0.00243575 0.00461385 -0.1)
(0.00243575 0.00461385 -0.1)
(-0.00353458 0.00520602 -0.1)
(0.00353458 0.00520602 -0.1)
(-0.00449629 0.00600177 -0.1)
(0.00449629 0.00600177 -0.1)
(-0.0052843 0.00696985 -0.1)
(0.0052843 0.00696985 -0.1)
(-0.00586899 0.00807271 -0.1)
(0.00586899 0.00807271 -0.1)
(-0.00622863 0.00926806 -0.1)
(0.00622863 0.00926806 -0.1)
(-0.00635 0.0105104 -0.1)
(0.00635 0.0105104 -0.1)
(-0.00622863 0.0117528 -0.1)
(0.00622863 0.0117528 -0.1)
(-0.00586899 0.0129481 -0.1)
(0.00586899 0.0129481 -0.1)
(-0.0052843 0.014051 -0.1)
(0.0052843 0.014051 -0.1)
(-0.00449629 0.0150191 -0.1)
(0.00449629 0.0150191 -0.1)
(-0.00353458 0.0158148 -0.1)
(0.00353458 0.0158148 -0.1)
(-0.00243575 0.016407 -0.1)
(0.00243575 0.016407 -0.1)
(-0.00124211 0.0167721 -0.1)
(0.00124211 0.0167721 -0.1)
(0 0.0168954 -0.1)
(-0.00123882 -0.00619387 -0.000651002)
(0 -0.00631521 -0.000663756)
(0.00123882 -0.00619387 -0.000651002)
(-0.00243004 -0.0058345 -0.00061323)
(0.00243004 -0.0058345 -0.00061323)
(-0.00352787 -0.00525091 -0.000551893)
(0.00352787 -0.00525091 -0.000551893)
(-0.00449013 -0.00446553 -0.000469346)
(0.00449013 -0.00446553 -0.000469346)
(-0.00527983 -0.00350854 -0.000368763)
(0.00527983 -0.00350854 -0.000368763)
(-0.00586664 -0.00241673 -0.000254008)
(0.00586664 -0.00241673 -0.000254008)
(-0.00622799 -0.00123204 -0.000129492)
(0.00622799 -0.00123204 -0.000129492)
(-0.00635 3.86695e-19 4.06433e-20)
(0.00635 -1.16009e-18 -1.2193e-19)
(-0.00622799 0.00123204 0.000129492)
(0.00622799 0.00123204 0.000129492)
(-0.00586664 0.00241673 0.000254008)
(0.00586664 0.00241673 0.000254008)
(-0.00527983 0.00350854 0.000368763)
(0.00527983 0.00350854 0.000368763)
(-0.00449013 0.00446553 0.000469346)
(0.00449013 0.00446553 0.000469346)
(-0.00352787 0.00525091 0.000551893)
(0.00352787 0.00525091 0.000551893)
(-0.00243004 0.0058345 0.00061323)
(0.00243004 0.0058345 0.00061323)
(-0.00123882 0.00619387 0.000651002)
(0.00123882 0.00619387 0.000651002)
(0 0.00631521 0.000663756)
)

// edges

64
(
(0 1)
(2 0)
(1 3)
(4 2)
(3 5)
(6 4)
(5 7)
(8 6)
(7 9)
(10 8)
(9 11)
(12 10)
(11 13)
(14 12)
(13 15)
(16 14)
(15 17)
(18 16)
(17 19)
(20 18)
(19 21)
(22 20)
(21 23)
(24 22)
(23 25)
(26 24)
(25 27)
(28 26)
(27 29)
(30 28)
(29 31)
(31 30)
(32 33)
(33 34)
(35 32)
(34 36)
(37 35)
(36 38)
(39 37)
(38 40)
(41 39)
(40 42)
(43 41)
(42 44)
(45 43)
(44 46)
(47 45)
(46 48)
(49 47)
(48 50)
(51 49)
(50 52)
(53 51)
(52 54)
(55 53)
(54 56)
(57 55)
(56 58)
(59 57)
(58 60)
(61 59)
(60 62)
(63 61)
(62 63)
)

// concaveStart mixedStart nonFeatureStart
0 0 0
// internalStart flatStart openStart multipleStart
0 0 0 64
// normals

64
(
(0.0982793 0.989707 0.104023)
(-0.0982807 0.989721 0.103891)
(0.290999 0.951469 0.100135)
(-0.291003 0.951481 0.100008)
(0.472386 0.876564 0.092127)
(-0.47238 0.876552 0.0922711)
(0.635422 0.76795 0.0805726)
(-0.635414 0.76794 0.0807294)
(0.773848 0.629903 0.0661895)
(-0.773854 0.629908 0.0660785)
(0.882442 0.467831 0.049298)
(-0.882448 0.467833 0.0491748)
(0.957157 0.287984 0.030265)
(-0.957153 0.287983 0.0304046)
(0.995212 0.097221 0.0100812)
(-0.99521 0.0972209 0.0102183)
(0.99521 -0.0972209 -0.0102183)
(-0.995209 -0.0972208 -0.010355)
(0.957161 -0.287985 -0.0301323)
(-0.957157 -0.287984 -0.0302717)
(0.882448 -0.467834 -0.0491678)
(-0.882453 -0.467836 -0.0490455)
(0.773841 -0.629898 -0.0663315)
(-0.773846 -0.629902 -0.0662209)
(0.635416 -0.767942 -0.0806981)
(-0.635408 -0.767932 -0.0808538)
(0.472392 -0.876575 -0.0919918)
(-0.472386 -0.876563 -0.0921338)
(0.291003 -0.951482 -0.100001)
(-0.291006 -0.951494 -0.0998754)
(0.098279 -0.989707 -0.104022)
(-0.098279 -0.989707 -0.104022)
(0.0980173 0.989719 0.104162)
(-0.0980173 0.989733 0.104025)
(0.290285 0.951698 0.100034)
(-0.290285 0.951713 0.0998909)
(0.471397 0.877103 0.0920606)
(-0.471397 0.877091 0.0921798)
(0.634393 0.768775 0.0808099)
(-0.634393 0.768763 0.0809272)
(0.77301 0.630903 0.0664534)
(-0.77301 0.630919 0.0663038)
(0.881921 0.468814 0.0492804)
(-0.881921 0.468829 0.0491339)
(0.95694 0.288708 0.0302138)
(-0.95694 0.288695 0.030337)
(0.995185 0.0974802 0.0102456)
(-0.995185 0.0974666 0.0103754)
(0.995185 -0.0974938 -0.0101162)
(-0.995185 -0.0974802 -0.0102456)
(0.95694 -0.288694 -0.030349)
(-0.95694 -0.288681 -0.0304719)
(0.881921 -0.4688 -0.0494139)
(-0.881921 -0.468815 -0.0492684)
(0.77301 -0.630917 -0.0663203)
(-0.77301 -0.630933 -0.066172)
(0.634393 -0.768789 -0.0806774)
(-0.634393 -0.768777 -0.0807932)
(0.471397 -0.877089 -0.092192)
(-0.471397 -0.877077 -0.0923098)
(0.290285 -0.951684 -0.100162)
(-0.290285 -0.951699 -0.100022)
(0.0980173 -0.989747 -0.10389)
(-0.0980173 -0.989747 -0.10389)
)

// normal volume types

64
(
0
0
0
0
0
0
0
0
0
0
0
0
0
0
0
0
0
0
0
0
0
0
0
0
0
0
0
0
0
0
0
0
0
0
0
0
0
0
0
0
0
0
0
0
0
0
0
0
0
0
0
0
0
0
0
0
0
0
0
0
0
0
0
0
)

// normalDirections

64
(
1(1)
1(1)
1(1)
1(1)
1(1)
1(1)
1(1)
1(1)
1(1)
1(1)
1(1)
1(1)
1(1)
1(1)
1(1)
1(1)
1(1)
1(1)
1(1)
1(1)
1(1)
1(1)
1(1)
1(1)
1(1)
1(1)
1(1)
1(1)
1(1)
1(1)
1(1)
1(1)
1(1)
1(1)
1(1)
1(1)
1(1)
1(1)
1(1)
1(1)
1(1)
1(1)
1(1)
1(1)
1(1)
1(1)
1(1)
1(1)
1(1)
1(1)
1(1)
1(1)
1(1)
1(1)
1(1)
1(1)
1(1)
1(1)
1(1)
1(1)
1(1)
1(1)
1(1)
1(1)
)

// edgeNormals

64
(
1(0)
1(1)
1(2)
1(3)
1(4)
1(5)
1(6)
1(7)
1(8)
1(9)
1(10)
1(11)
1(12)
1(13)
1(14)
1(15)
1(16)
1(17)
1(18)
1(19)
1(20)
1(21)
1(22)
1(23)
1(24)
1(25)
1(26)
1(27)
1(28)
1(29)
1(30)
1(31)
1(32)
1(33)
1(34)
1(35)
1(36)
1(37)
1(38)
1(39)
1(40)
1(41)
1(42)
1(43)
1(44)
1(45)
1(46)
1(47)
1(48)
1(49)
1(50)
1(51)
1(52)
1(53)
1(54)
1(55)
1(56)
1(57)
1(58)
1(59)
1(60)
1(61)
1(62)
1(63)
)

// featurePointNormals
0()
// featurePointEdges
0()
// regionEdges

64
(
0
1
2
3
4
5
6
7
8
9
10
11
12
13
14
15
16
17
18
19
20
21
22
23
24
25
26
27
28
29
30
31
32
33
34
35
36
37
38
39
40
41
42
43
44
45
46
47
48
49
50
51
52
53
54
55
56
57
58
59
60
61
62
63
)



// ************************************************************************* //
