/*--------------------------------*- C++ -*----------------------------------*\
  =========                 |
  \\      /  F ield         | OpenFOAM: The Open Source CFD Toolbox
   \\    /   O peration     | Website:  https://openfoam.org
    \\  /    A nd           | Version:  9
     \\/     M anipulation  |
\*---------------------------------------------------------------------------*/
FoamFile
{
    format      ascii;
    class       extendedFeatureEdgeMesh;
    location    "constant/extendedFeatureEdgeMesh";
    object      w_lance_3.extendedFeatureEdgeMesh;
}
// * * * * * * * * * * * * * * * * * * * * * * * * * * * * * * * * * * * * * //

// points

64
(
(-0.00155019 0.00269571 -0.1)
(0 0.00254177 -0.1)
(0.00155019 0.00269571 -0.1)
(-0.00303989 0.00315132 -0.1)
(0.00303989 0.00315132 -0.1)
(-0.00441126 0.00389036 -0.1)
(0.00441126 0.00389036 -0.1)
(-0.00561151 0.00488348 -0.1)
(0.00561151 0.00488348 -0.1)
(-0.00659497 0.00609168 -0.1)
(0.00659497 0.00609168 -0.1)
(-0.00732468 0.00746809 -0.1)
(0.00732468 0.00746809 -0.1)
(-0.00777353 0.00895991 -0.1)
(0.00777353 0.00895991 -0.1)
(-0.007925 0.0105104 -0.1)
(0.007925 0.0105104 -0.1)
(-0.00777353 0.0120609 -0.1)
(0.00777353 0.0120609 -0.1)
(-0.00732468 0.0135528 -0.1)
(0.00732468 0.0135528 -0.1)
(-0.00659497 0.0149292 -0.1)
(0.00659497 0.0149292 -0.1)
(-0.00561151 0.0161374 -0.1)
(0.00561151 0.0161374 -0.1)
(-0.00441126 0.0171305 -0.1)
(0.00441126 0.0171305 -0.1)
(-0.00303989 0.0178695 -0.1)
(0.00303989 0.0178695 -0.1)
(-0.00155019 0.0183251 -0.1)
(0.00155019 0.0183251 -0.1)
(0 0.0184791 -0.1)
(0 -0.00788159 -0.000828388)
(-0.00154609 -0.00773014 -0.000812471)
(0.00154609 -0.00773014 -0.000812471)
(-0.00303277 -0.00728164 -0.000765331)
(0.00303277 -0.00728164 -0.000765331)
(-0.00440289 -0.0065533 -0.00068878)
(0.00440289 -0.0065533 -0.00068878)
(-0.00560382 -0.00557312 -0.000585759)
(0.00560382 -0.00557312 -0.000585759)
(-0.0065894 -0.00437877 -0.000460228)
(0.0065894 -0.00437877 -0.000460228)
(-0.00732175 -0.00301615 -0.00031701)
(0.00732175 -0.00301615 -0.00031701)
(-0.00777272 -0.00153762 -0.000161611)
(0.00777272 -0.00153762 -0.000161611)
(-0.007925 4.82608e-19 5.07241e-20)
(0.007925 -1.44782e-18 -1.52172e-19)
(-0.00777272 0.00153762 0.000161611)
(0.00777272 0.00153762 0.000161611)
(-0.00732175 0.00301615 0.00031701)
(0.00732175 0.00301615 0.00031701)
(-0.0065894 0.00437877 0.000460228)
(0.0065894 0.00437877 0.000460228)
(-0.00560382 0.00557312 0.000585759)
(0.00560382 0.00557312 0.000585759)
(-0.00440289 0.0065533 0.00068878)
(0.00440289 0.0065533 0.00068878)
(-0.00303277 0.00728164 0.000765331)
(0.00303277 0.00728164 0.000765331)
(-0.00154609 0.00773014 0.000812471)
(0.00154609 0.00773014 0.000812471)
(0 0.00788159 0.000828388)
)

// edges

64
(
(0 1)
(1 2)
(3 0)
(2 4)
(5 3)
(4 6)
(7 5)
(6 8)
(9 7)
(8 10)
(11 9)
(10 12)
(13 11)
(12 14)
(15 13)
(14 16)
(17 15)
(16 18)
(19 17)
(18 20)
(21 19)
(20 22)
(23 21)
(22 24)
(25 23)
(24 26)
(27 25)
(26 28)
(29 27)
(28 30)
(31 29)
(30 31)
(32 33)
(34 32)
(33 35)
(36 34)
(35 37)
(38 36)
(37 39)
(40 38)
(39 41)
(42 40)
(41 43)
(44 42)
(43 45)
(46 44)
(45 47)
(48 46)
(47 49)
(50 48)
(49 51)
(52 50)
(51 53)
(54 52)
(53 55)
(56 54)
(55 57)
(58 56)
(57 59)
(60 58)
(59 61)
(62 60)
(61 63)
(63 62)
)

// concaveStart mixedStart nonFeatureStart
0 0 0
// internalStart flatStart openStart multipleStart
0 0 0 64
// normals

64
(
(-0.0982794 -0.989707 -0.104022)
(0.0982794 -0.989707 -0.104022)
(-0.290998 -0.951466 -0.100168)
(0.290998 -0.951466 -0.100168)
(-0.472386 -0.876564 -0.0921263)
(0.472386 -0.876564 -0.0921263)
(-0.635424 -0.767952 -0.0805369)
(0.635424 -0.767952 -0.0805369)
(-0.773848 -0.629904 -0.0661858)
(0.773848 -0.629904 -0.0661858)
(-0.882441 -0.46783 -0.0493294)
(0.882441 -0.46783 -0.0493294)
(-0.957157 -0.287984 -0.030264)
(0.957157 -0.287984 -0.030264)
(-0.995212 -0.0972213 -0.0100472)
(0.995212 -0.0972213 -0.0100472)
(-0.99521 0.097221 0.0102183)
(0.99521 0.097221 0.0102183)
(-0.957162 0.287986 0.0300987)
(0.957162 0.287986 0.0300987)
(-0.882448 0.467834 0.0491668)
(0.882448 0.467834 0.0491668)
(-0.773839 0.629896 0.0663625)
(0.773839 0.629896 0.0663625)
(-0.635416 0.767942 0.0806944)
(0.635416 0.767942 0.0806944)
(-0.472393 0.876578 0.0919571)
(0.472393 0.876578 0.0919571)
(-0.291003 0.951482 0.0999997)
(0.291003 0.951482 0.0999997)
(-0.0982797 0.989707 0.104023)
(0.098278 0.98969 0.104184)
(-0.0980174 -0.989715 -0.104197)
(0.0980174 -0.989715 -0.104197)
(-0.290285 -0.951697 -0.100035)
(0.290285 -0.951697 -0.100035)
(-0.471397 -0.877106 -0.0920295)
(0.471397 -0.877106 -0.0920295)
(-0.634393 -0.768775 -0.080812)
(0.634393 -0.768775 -0.080812)
(-0.77301 -0.6309 -0.0664886)
(0.77301 -0.6309 -0.0664886)
(-0.881921 -0.468813 -0.0492819)
(0.881921 -0.468813 -0.0492819)
(-0.95694 -0.288711 -0.0301817)
(0.95694 -0.288711 -0.0301817)
(-0.995185 -0.0974803 -0.0102456)
(0.995185 -0.0974803 -0.0102456)
(-0.995185 0.0974973 0.0100841)
(0.995185 0.0974973 0.0100841)
(-0.95694 0.288694 0.0303505)
(0.95694 0.288694 0.0303505)
(-0.881921 0.468796 0.0494484)
(0.881921 0.468796 0.0494484)
(-0.77301 0.630917 0.0663226)
(0.77301 0.630917 0.0663226)
(-0.634393 0.768792 0.0806467)
(0.634393 0.768792 0.0806467)
(-0.471397 0.877089 0.0921933)
(0.471397 0.877089 0.0921933)
(-0.290285 0.95168 0.100195)
(0.290285 0.95168 0.100195)
(-0.0980174 0.989751 0.103857)
(0.0980174 0.989751 0.103857)
)

// normal volume types

64
(
0
0
0
0
0
0
0
0
0
0
0
0
0
0
0
0
0
0
0
0
0
0
0
0
0
0
0
0
0
0
0
0
0
0
0
0
0
0
0
0
0
0
0
0
0
0
0
0
0
0
0
0
0
0
0
0
0
0
0
0
0
0
0
0
)

// normalDirections

64
(
1(1)
1(1)
1(1)
1(1)
1(1)
1(1)
1(1)
1(1)
1(1)
1(1)
1(1)
1(1)
1(1)
1(1)
1(1)
1(1)
1(1)
1(1)
1(1)
1(1)
1(1)
1(1)
1(1)
1(1)
1(1)
1(1)
1(1)
1(1)
1(1)
1(1)
1(1)
1(1)
1(1)
1(1)
1(1)
1(1)
1(1)
1(1)
1(1)
1(1)
1(1)
1(1)
1(1)
1(1)
1(1)
1(1)
1(1)
1(1)
1(1)
1(1)
1(1)
1(1)
1(1)
1(1)
1(1)
1(1)
1(1)
1(1)
1(1)
1(1)
1(1)
1(1)
1(1)
1(1)
)

// edgeNormals

64
(
1(0)
1(1)
1(2)
1(3)
1(4)
1(5)
1(6)
1(7)
1(8)
1(9)
1(10)
1(11)
1(12)
1(13)
1(14)
1(15)
1(16)
1(17)
1(18)
1(19)
1(20)
1(21)
1(22)
1(23)
1(24)
1(25)
1(26)
1(27)
1(28)
1(29)
1(30)
1(31)
1(32)
1(33)
1(34)
1(35)
1(36)
1(37)
1(38)
1(39)
1(40)
1(41)
1(42)
1(43)
1(44)
1(45)
1(46)
1(47)
1(48)
1(49)
1(50)
1(51)
1(52)
1(53)
1(54)
1(55)
1(56)
1(57)
1(58)
1(59)
1(60)
1(61)
1(62)
1(63)
)

// featurePointNormals
0()
// featurePointEdges
0()
// regionEdges

64
(
0
1
2
3
4
5
6
7
8
9
10
11
12
13
14
15
16
17
18
19
20
21
22
23
24
25
26
27
28
29
30
31
32
33
34
35
36
37
38
39
40
41
42
43
44
45
46
47
48
49
50
51
52
53
54
55
56
57
58
59
60
61
62
63
)



// ************************************************************************* //
