/*--------------------------------*- C++ -*----------------------------------*\
  =========                 |
  \\      /  F ield         | OpenFOAM: The Open Source CFD Toolbox
   \\    /   O peration     | Website:  https://openfoam.org
    \\  /    A nd           | Version:  7  
     \\/     M anipulation  |
\*---------------------------------------------------------------------------*/
FoamFile
{
    version     2.0;
    format      ascii;
    class       volScalarField;
    location    "0";
    object      omega;
}
// * * * * * * * * * * * * * * * * * * * * * * * * * * * * * * * * * * * * * //

dimensions      [0 2 -3 0 0 0 0];

internalField   uniform 0.01;

boundaryField
{
    "w_.*"
    {
        type            epsilonWallFunction;
        Cmu             0.09;
        kappa           0.41;
        E               9.8;
        value           $internalField;
    }
    outlet
    {
        type            zeroGradient;
    }
    in_coolinggas
    {
        type            turbulentMixingLengthDissipationRateInlet;
        mixingLength    0.000462;
        k               k;
        value           $internalField;
    }
    in_blast
    {
        type            turbulentMixingLengthDissipationRateInlet;
        mixingLength    0.0063;
        k               k;
        value           $internalField;
    }
    in_pci
    {
        type            turbulentMixingLengthDissipationRateInlet;
        mixingLength    0.000658;
        k               k;
        value           $internalField;
    }
    sampleRegion
    {
        type zeroGradient;
    }

}


// ************************************************************************* //
